geometry optimzed in LAMMPS
_audit_creation_date              2020-11-30 
_audit_creation_method            'lammps2cif' 
_symmetry_space_group_name_H-M    'P1' 
_symmetry_Int_Tables_number       1 
_symmetry_cell_setting            triclinic 
loop_ 
_symmetry_equiv_pos_as_xyz 
  x,y,z 
_cell_length_a                    53.64446141 
_cell_length_b                    53.04489317973256 
_cell_length_c                    52.508391545074694 
_cell_angle_alpha                 89.68662638702135 
_cell_angle_beta                  89.75212636022894 
_cell_angle_gamma                 89.77344285411063 
loop_ 
_atom_site_label 
_atom_site_type_symbol 
_atom_site_fract_x 
_atom_site_fract_y 
_atom_site_fract_z 
_atom_site_charge 
O1          O  0.24313486  0.68333840  0.72530785    -0.80300
O2          O  0.22952095  0.78762206  0.76121488    -0.80300
O3          O  0.21740341  0.73402700  0.79020472    -0.80300
O4          O  0.21818467  0.75047381  0.71642289    -0.80300
O5          O  0.24441229  0.75984451  0.80477584    -0.80400
O6          O  0.24195230  0.72440814  0.69454635    -0.80300
O7          O  0.23573571  0.79817882  0.72078481    -0.80300
O8          O  0.21610754  0.69841446  0.75291672    -0.80300
C9          C  0.22231806  0.68184167  0.73694070     1.09400
C10         C  0.22572540  0.80282585  0.74202939     1.09300
C11         C  0.22514946  0.74684488  0.80861294     1.09400
C12         C  0.22234288  0.73798566  0.69628565     1.09300
O13         O  0.29203361  0.73795845  0.71128872    -0.80300
O14         O  0.29052281  0.74647361  0.78301853    -0.80400
O15         O  0.26422358  0.67960607  0.76826049    -0.80300
O16         O  0.27920724  0.78767574  0.74308917    -0.80300
O17         O  0.27333789  0.79475057  0.78413694    -0.80300
O18         O  0.29184649  0.69751352  0.74362487    -0.80300
O19         O  0.26540839  0.76517676  0.69775308    -0.80300
O20         O  0.26800617  0.71791124  0.80316672    -0.80300
Co21       Co  0.26707001  0.71227907  0.72047729     1.51500
Co22       Co  0.26093885  0.76483321  0.77062401     1.51700
Co23       Co  0.24172260  0.70921973  0.77702116     1.51600
Co24       Co  0.24763850  0.76684468  0.73153958     1.51500
O25         O  0.25409367  0.73395448  0.74972159    -1.42200
C26         C  0.28489457  0.75240521  0.69369271     1.09300
C27         C  0.28735118  0.73189168  0.80194293     1.09400
C28         C  0.28466926  0.67843416  0.75593583     1.09400
C29         C  0.28313078  0.80119594  0.76322728     1.09300
O30         O  0.73066945  0.22859303  0.68205468    -0.80300
O31         O  0.76527477  0.21929653  0.78441873    -0.80300
O32         O  0.79299975  0.20697219  0.73644931    -0.80300
O33         O  0.71016906  0.23680611  0.76561303    -0.80300
O34         O  0.80714215  0.23529579  0.76145372    -0.80400
O35         O  0.69955293  0.23843575  0.72419274    -0.80300
O36         O  0.72671758  0.22829070  0.78232647    -0.80300
O37         O  0.75998820  0.20277246  0.69672875    -0.80300
C38         C  0.74340625  0.20818341  0.68039988     1.09400
C39         C  0.74359766  0.21521594  0.79260223     1.09300
C40         C  0.81091958  0.21523455  0.74921320     1.09400
C41         C  0.69456904  0.23249515  0.74728378     1.09300
O42         O  0.72322123  0.28805787  0.72711627    -0.80300
O43         O  0.78509939  0.28103135  0.74562295    -0.80400
O44         O  0.77632914  0.24840405  0.67592564    -0.80300
O45         O  0.74245371  0.27151534  0.80068377    -0.80300
O46         O  0.78286672  0.26556302  0.79647921    -0.80300
O47         O  0.75298881  0.27822330  0.69034755    -0.80300
O48         O  0.71014739  0.27815811  0.76346940    -0.80300
O49         O  0.80601367  0.25746144  0.71832273    -0.80300
Co50       Co  0.72782390  0.25726304  0.70736103     1.51500
Co51       Co  0.77284439  0.25096862  0.76394414     1.51700
Co52       Co  0.78205715  0.22960058  0.70877944     1.51600
Co53       Co  0.74206399  0.25809558  0.76537853     1.51500
O54         O  0.75289209  0.24136178  0.73168515    -1.42200
C55         C  0.70575576  0.28885036  0.74275871     1.09300
C56         C  0.80454345  0.27712342  0.73228813     1.09400
C57         C  0.76595478  0.26948703  0.67268930     1.09400
C58         C  0.76443805  0.27283987  0.81009102     1.09300
O59         O  0.69928849  0.74248416  0.24495176    -0.80300
O60         O  0.80162013  0.77237425  0.24285666    -0.80300
O61         O  0.72460114  0.80027585  0.24707626    -0.80300
O62         O  0.77561051  0.71350799  0.24163952    -0.80300
O63         O  0.76531914  0.80973427  0.24654837    -0.80400
O64         O  0.73589849  0.70489924  0.24325875    -0.80300
O65         O  0.79284837  0.73105616  0.24246753    -0.80300
O66         O  0.70724554  0.78281387  0.24594869    -0.80300
C67         C  0.69371097  0.76479959  0.23820125     1.09400
C68         C  0.80498371  0.75037193  0.23379149     1.09300
C69         C  0.74312464  0.81367377  0.23894864     1.09400
C70         C  0.75744011  0.69991648  0.23465036     1.09300
O71         O  0.74402731  0.70995006  0.29767249    -0.80300
O72         O  0.76544462  0.80188428  0.30186404    -0.80400
O73         O  0.69140433  0.78472695  0.29147155    -0.80300
O74         O  0.80969743  0.73280316  0.28197250    -0.80300
O75         O  0.79964791  0.76781197  0.29846338    -0.80300
O76         O  0.70707343  0.74772122  0.29953048    -0.80300
O77         O  0.77992480  0.69463909  0.28588442    -0.80300
O78         O  0.72983878  0.81344537  0.28844033    -0.80300
Co79       Co  0.72454621  0.72931343  0.27044851     1.51500
Co80       Co  0.78088995  0.78590280  0.27155324     1.51700
Co81       Co  0.72462977  0.77769636  0.27874801     1.51600
Co82       Co  0.77317645  0.72904656  0.27576184     1.51500
O83         O  0.75352370  0.75882319  0.26483409    -1.42200
C84         C  0.75818776  0.69057191  0.29445848     1.09300
C85         C  0.74933642  0.81890731  0.30001914     1.09400
C86         C  0.68773331  0.76201874  0.29800323     1.09400
C87         C  0.81645628  0.75222026  0.29329074     1.09300
C88         C  0.52294557  0.00070452  0.01828201     0.02100
C89         C  0.50588063  0.98043092  0.01749897     0.02100
C90         C  0.48870670  0.97863642  0.99722546     0.02100
C91         C  0.48842348  0.99749524  0.97801945     0.02100
C92         C  0.50513741  0.01808183  0.97906608     0.02100
C93         C  0.52270356  0.01949359  0.99901974     0.02100
C94         C  0.67228896  0.98215349  0.19108036     0.03000
C95         C  0.67801802  0.00459861  0.20413511    -0.13200
C96         C  0.66489584  0.02709379  0.19879672     0.00500
C97         C  0.64657876  0.02710645  0.17978165    -0.11700
C98         C  0.64105662  0.00504241  0.16640618     0.03000
C99         C  0.65363107  0.98265588  0.17242556    -0.11100
H100        H  0.69263378  0.00462695  0.21830204     0.08600
H101        H  0.63677118  0.04443498  0.17516819     0.06100
H102        H  0.64912734  0.96559023  0.16218113     0.05900
C103        C  0.68061419  0.18620402  0.96898832     0.03000
C104        C  0.66166416  0.16823313  0.97110596    -0.13200
C105        C  0.65216912  0.16052396  0.99501988     0.00500
C106        C  0.66140763  0.17286684  0.01684493    -0.11700
C107        C  0.67827890  0.19313611  0.01482336     0.03000
C108        C  0.68855486  0.19907244  0.99079821    -0.11100
H109        H  0.65482518  0.16006678  0.95367572     0.08600
H110        H  0.65582775  0.16685885  0.03568374     0.06100
H111        H  0.70298805  0.21320688  0.98912012     0.05900
C112        C  0.33278380  0.97319875  0.80827349     0.03000
C113        C  0.35228844  0.96971305  0.82562052    -0.13200
C114        C  0.36030998  0.98968344  0.84062815     0.00500
C115        C  0.34882817  0.01326394  0.83838707    -0.11700
C116        C  0.32986654  0.01750969  0.82048682     0.03000
C117        C  0.32151169  0.99711479  0.80567354    -0.11100
H118        H  0.36104533  0.95135163  0.82764013     0.08600
H119        H  0.35489948  0.02844652  0.85059377     0.06100
H120        H  0.30671156  0.99986942  0.79195573     0.05900
C121        C  0.52409892  0.18061088  0.81040710     0.03000
C122        C  0.52634495  0.16153250  0.82901327    -0.13200
C123        C  0.50551063  0.15347589  0.84310188     0.00500
C124        C  0.48237583  0.16506962  0.83879114    -0.11700
C125        C  0.47981434  0.18464704  0.82090345     0.03000
C126        C  0.50073074  0.19223376  0.80652056    -0.11100
H127        H  0.54435683  0.15290483  0.83249461     0.08600
H128        H  0.46621839  0.15892959  0.84960150     0.06100
H129        H  0.49890561  0.20726801  0.79259187     0.05900
C130        C  0.52190247  0.81367144  0.17860366     0.03000
C131        C  0.52240323  0.83448284  0.16188786    -0.13200
C132        C  0.50037621  0.84676349  0.15466471     0.00500
C133        C  0.47755454  0.83853525  0.16463119    -0.11700
C134        C  0.47639757  0.81851076  0.18227015     0.03000
C135        C  0.49878915  0.80610938  0.18920339    -0.11100
H136        H  0.54001021  0.84110926  0.15425257     0.08600
H137        H  0.46056360  0.84790849  0.15861285     0.06100
H138        H  0.49827238  0.79067507  0.20277056     0.05900
C139        C  0.34639552  0.79682993  0.96945406     0.03000
C140        C  0.33746183  0.78771352  0.99294981    -0.13200
C141        C  0.34618276  0.79788915  0.01588566     0.00500
C142        C  0.36450133  0.81671677  0.01507217    -0.11700
C143        C  0.37309204  0.82689241  0.99176662     0.03000
C144        C  0.36337816  0.81693104  0.96902652    -0.11100
H145        H  0.32389765  0.77262811  0.99337236     0.08600
H146        H  0.37160137  0.82377240  0.03290646     0.06100
H147        H  0.36851043  0.82489999  0.95076144     0.05900
C148        C  0.00882914  0.51405702  0.99425740     0.02100
C149        C  0.00798393  0.49429838  0.97620333     0.02100
C150        C  0.98903346  0.47577395  0.97774275     0.02100
C151        C  0.97075560  0.47754297  0.99727220     0.02100
C152        C  0.97153091  0.49734043  0.01520834     0.02100
C153        C  0.99036172  0.51569566  0.01341539     0.02100
C154        C  0.17430629  0.67734028  0.98032038     0.03000
C155        C  0.15503670  0.65961294  0.97763300    -0.13200
C156        C  0.14522867  0.64663953  0.99885495     0.00500
C157        C  0.15600441  0.65104477  0.02276785    -0.11700
C158        C  0.17731795  0.66596351  0.02542329     0.03000
C159        C  0.18601515  0.67983019  0.00419479    -0.11100
H160        H  0.14808372  0.65587690  0.95873853     0.08600
H161        H  0.14806292  0.64250212  0.03970628     0.06100
H162        H  0.20169743  0.69244904  0.00622226     0.05900
C163        C  0.16769875  0.52190408  0.81154655     0.03000
C164        C  0.18357488  0.50087682  0.80985884    -0.13200
C165        C  0.17928398  0.47946613  0.82506846     0.00500
C166        C  0.15893262  0.47923476  0.84194174    -0.11700
C167        C  0.14287640  0.50010522  0.84354085     0.03000
C168        C  0.14752800  0.52148431  0.82856150    -0.11100
H169        H  0.19938280  0.50127984  0.79694055     0.08600
H170        H  0.15542242  0.46270329  0.85362502     0.06100
H171        H  0.13515298  0.53764962  0.82979261     0.05900
C172        C  0.96624835  0.68548284  0.16840201     0.03000
C173        C  0.98893702  0.69231421  0.17988641    -0.13200
C174        C  0.01124462  0.67963236  0.17333953     0.00500
C175        C  0.01038558  0.66029433  0.15521904    -0.11700
C176        C  0.98795222  0.65356162  0.14370354     0.03000
C177        C  0.96592044  0.66610226  0.15039740    -0.11100
H178        H  0.98919432  0.70749329  0.19359282     0.08600
H179        H  0.02727943  0.65018506  0.15013776     0.06100
H180        H  0.94850769  0.66087957  0.14148210     0.05900
C181        C  0.81838161  0.48187045  0.18948637     0.03000
C182        C  0.83666549  0.48137840  0.17028514    -0.13200
C183        C  0.84173204  0.50283126  0.15539016     0.00500
C184        C  0.82852854  0.52526041  0.16033298    -0.11700
C185        C  0.81007736  0.52623465  0.17947537     0.03000
C186        C  0.80497133  0.50428931  0.19380776    -0.11100
H187        H  0.84708281  0.46415533  0.16700888     0.08600
H188        H  0.83291170  0.54211001  0.14949180     0.06100
H189        H  0.79087712  0.50476387  0.20864465     0.05900
C190        C  0.01161056  0.30086314  0.82526603     0.03000
C191        C  0.99052162  0.29722242  0.80976717    -0.13200
C192        C  0.96919683  0.31255506  0.81283938     0.00500
C193        C  0.96936360  0.33178654  0.83108035    -0.11700
C194        C  0.98972788  0.33500644  0.84752201     0.03000
C195        C  0.01074807  0.31929660  0.84441132    -0.11100
H196        H  0.99077125  0.28271364  0.79532381     0.08600
H197        H  0.95337169  0.34423573  0.83241709     0.06100
H198        H  0.02673501  0.32154346  0.85671643     0.05900
C199        C  0.82932452  0.30276960  0.03078503     0.03000
C200        C  0.81480310  0.29634394  0.00961381    -0.13200
C201        C  0.81554610  0.31132627  0.98751970     0.00500
C202        C  0.83067639  0.33278477  0.98672723    -0.11700
C203        C  0.84530181  0.33901102  0.00767305     0.03000
C204        C  0.84457045  0.32409555  0.02964172    -0.11100
H205        H  0.80265066  0.28009803  0.01041335     0.08600
H206        H  0.83180797  0.34407022  0.96948061     0.06100
H207        H  0.85596829  0.32905915  0.04585850     0.05900
C208        C  0.50048872  0.47860576  0.52389132     0.02100
C209        C  0.51915812  0.47838193  0.50482061     0.02100
C210        C  0.51808231  0.49593068  0.48445829     0.02100
C211        C  0.49884624  0.51437600  0.48391459     0.02100
C212        C  0.48021206  0.51487195  0.50321653     0.02100
C213        C  0.48058845  0.49621309  0.52264434     0.07500
C214        C  0.48187893  0.30663847  0.67996427     0.03000
C215        C  0.47969947  0.32784762  0.66397040    -0.13200
C216        C  0.49990082  0.34387772  0.65975012     0.00500
C217        C  0.52230697  0.33912094  0.67240295    -0.11700
C218        C  0.52597050  0.31717420  0.68714467     0.03000
C219        C  0.50527755  0.30101536  0.69113398    -0.11100
H220        H  0.46214265  0.33187482  0.65467804     0.08600
H221        H  0.53730431  0.35255032  0.67002921     0.06100
H222        H  0.50727123  0.28389264  0.70221424     0.05900
C223        C  0.31563402  0.67623957  0.47405633     0.03000
C224        C  0.30999448  0.69048165  0.49596049    -0.13200
C225        C  0.32355122  0.68668205  0.51863778     0.00500
C226        C  0.34185990  0.66764939  0.51942728    -0.11700
C227        C  0.34881240  0.65422882  0.49746686     0.03000
C228        C  0.33556360  0.65898427  0.47483268    -0.11100
H229        H  0.29507319  0.70428838  0.49540888     0.08600
H230        H  0.35035222  0.66312891  0.53753398     0.06100
H231        H  0.34063268  0.64924323  0.45749168     0.05900
C232        C  0.66724948  0.47698977  0.30374212     0.03000
C233        C  0.65010093  0.47540964  0.32402742    -0.13200
C234        C  0.64280534  0.49698007  0.33771020     0.00500
C235        C  0.65459275  0.51997496  0.33178683    -0.11700
C236        C  0.67410101  0.52127421  0.31390235     0.03000
C237        C  0.67976149  0.49986020  0.29929103    -0.11100
H238        H  0.64272090  0.45712363  0.32914395     0.08600
H239        H  0.64886909  0.53711959  0.34127428     0.06100
H240        H  0.69398649  0.50093825  0.28462646     0.05900
C241        C  0.47795287  0.66783255  0.31124076     0.03000
C242        C  0.49886515  0.68314628  0.30663798    -0.13200
C243        C  0.52031214  0.68059430  0.32169880     0.00500
C244        C  0.52103299  0.66221945  0.34099120    -0.11700
C245        C  0.50046047  0.64664945  0.34547224     0.03000
C246        C  0.47905868  0.64945601  0.33057437    -0.11100
H247        H  0.49845774  0.69709439  0.29149253     0.08600
H248        H  0.53774503  0.65980947  0.35229565     0.06100
H249        H  0.46301555  0.63766393  0.33448793     0.05900
C250        C  0.31293443  0.46157237  0.67936903     0.03000
C251        C  0.30717835  0.48394215  0.69254239    -0.13200
C252        C  0.32033447  0.50625204  0.68713965     0.00500
C253        C  0.33885466  0.50613444  0.66826337    -0.11700
C254        C  0.34488104  0.48394344  0.65521381     0.03000
C255        C  0.33193598  0.46168860  0.66090547    -0.11100
H256        H  0.29266014  0.48395009  0.70695199     0.08600
H257        H  0.34895988  0.52333452  0.66404055     0.06100
H258        H  0.33635086  0.44453668  0.65067215     0.05900
C259        C  0.67118302  0.31200632  0.47036721     0.03000
C260        C  0.68819866  0.30663786  0.48995481    -0.13200
C261        C  0.68722138  0.32022899  0.51281021     0.00500
C262        C  0.66896230  0.33893415  0.51616949    -0.11700
C263        C  0.65217087  0.34453491  0.49656641     0.03000
C264        C  0.65347741  0.33121135  0.47366721    -0.11100
H265        H  0.70208015  0.29194748  0.48745033     0.08600
H266        H  0.66792176  0.34920185  0.53393906     0.06100
H267        H  0.64040774  0.33551571  0.45854401     0.05900
C268        C  0.00858337  0.98960616  0.47459926     0.02100
C269        C  0.02546895  0.98900316  0.49527379     0.02100
C270        C  0.02444592  0.00824186  0.51390493     0.02100
C271        C  0.00700963  0.02819229  0.51154969     0.02100
C272        C  0.99005869  0.02865513  0.49105383     0.02100
C273        C  0.99077456  0.00931254  0.47270992     0.02100
C274        C  0.98403247  0.17414296  0.69067156     0.03000
C275        C  0.00676334  0.18585749  0.69672130    -0.13200
C276        C  0.02799649  0.18187175  0.68150701     0.00500
C277        C  0.02665697  0.16602425  0.66037878    -0.11700
C278        C  0.00429213  0.15399508  0.65420527     0.03000
C279        C  0.98310681  0.15808151  0.66944256    -0.11100
H280        H  0.00808183  0.19778049  0.71333931     0.08600
H281        H  0.04314592  0.16300128  0.64875559     0.06100
H282        H  0.96583301  0.14870063  0.66475415     0.05900
C283        C  0.18224440  0.01768923  0.67741929     0.03000
C284        C  0.16463062  0.01604811  0.65777770    -0.13200
C285        C  0.15255532  0.99330866  0.65251841     0.00500
C286        C  0.15883621  0.97160892  0.66640377    -0.11700
C287        C  0.17693245  0.97254542  0.68565881     0.03000
C288        C  0.18860098  0.99564305  0.69108585    -0.11100
H289        H  0.16005489  0.03261761  0.64655047     0.08600
H290        H  0.14938630  0.95404213  0.66245322     0.06100
H291        H  0.20193453  0.99658473  0.70648552     0.05900
C292        C  0.17936308  0.81770495  0.52960392     0.03000
C293        C  0.16286818  0.83828645  0.52985165    -0.13200
C294        C  0.15650072  0.85090246  0.50714095     0.00500
C295        C  0.16703445  0.84238989  0.48413663    -0.11700
C296        C  0.18493473  0.82298239  0.48367093     0.03000
C297        C  0.19092633  0.81056185  0.50664784    -0.11100
H298        H  0.15485322  0.84420981  0.54782867     0.08600
H299        H  0.16106913  0.85065766  0.46627229     0.06100
H300        H  0.20447729  0.79537600  0.50677732     0.05900
C301        C  0.81179064  0.16963866  0.51115435     0.03000
C302        C  0.83269366  0.15364975  0.50935582    -0.13200
C303        C  0.84668110  0.15222368  0.48669524     0.00500
C304        C  0.83975886  0.16725554  0.46578829    -0.11700
C305        C  0.81934380  0.18380184  0.46750364     0.03000
C306        C  0.80533485  0.18486620  0.49014980    -0.11100
H307        H  0.83792619  0.14205898  0.52555301     0.08600
H308        H  0.85066724  0.16660553  0.44837721     0.06100
H309        H  0.78964118  0.19772486  0.49150158     0.05900
C310        C  0.81918172  0.98901484  0.32275594     0.03000
C311        C  0.81483691  0.01153811  0.30925468    -0.13200
C312        C  0.83277280  0.03087034  0.30896908     0.00500
C313        C  0.85547454  0.02669178  0.32155843    -0.11700
C314        C  0.85894926  0.00553121  0.33724008     0.03000
C315        C  0.84084969  0.98656424  0.33747084    -0.11100
H316        H  0.79720356  0.01411037  0.29960669     0.08600
H317        H  0.87017963  0.04056601  0.32030499     0.06100
H318        H  0.84340693  0.97001250  0.34935699     0.05900
C319        C  0.99040408  0.81635442  0.32103367     0.03000
C320        C  0.98870072  0.83485862  0.33998711    -0.13200
C321        C  0.00900455  0.85044392  0.34522134     0.00500
C322        C  0.03127386  0.84745515  0.33162900    -0.11700
C323        C  0.03355433  0.82902993  0.31267916     0.03000
C324        C  0.01298531  0.81337741  0.30745632    -0.11100
H325        H  0.97130110  0.83761763  0.35019902     0.08600
H326        H  0.04702126  0.85935990  0.33611605     0.06100
H327        H  0.01445151  0.79915694  0.29279060     0.05900
O328        O  0.25289856  0.20351756  0.73461360    -0.80300
O329        O  0.22450976  0.30199482  0.75712092    -0.80300
O330        O  0.21023275  0.23881971  0.73889882    -0.80300
O331        O  0.30073390  0.27783650  0.74594632    -0.80300
O332        O  0.18833326  0.26533418  0.76107211    -0.80400
O333        O  0.29424554  0.24064423  0.72761732    -0.80300
O334        O  0.25106787  0.27952190  0.73524491    -0.80300
O335        O  0.21682952  0.19105146  0.75234249    -0.80300
C336        C  0.23494069  0.18697379  0.73736735     1.09400
C337        C  0.23813446  0.29932406  0.73753553     1.09300
C338        C  0.19017938  0.25082661  0.74227285     1.09400
C339        C  0.30796833  0.26049867  0.73049950     1.09300
O340        O  0.29361387  0.22643362  0.77387578    -0.80300
O341        O  0.20095722  0.25577164  0.81183662    -0.80400
O342        O  0.24220856  0.20020223  0.79456592    -0.80300
O343        O  0.26698246  0.30372187  0.78127182    -0.80300
O344        O  0.23789511  0.29304836  0.80877054    -0.80300
O345        O  0.27622189  0.20712640  0.77181562    -0.80300
O346        O  0.29241914  0.26112544  0.79471970    -0.80300
O347        O  0.19392836  0.22214271  0.78834774    -0.80300
Co348      Co  0.26476330  0.23823362  0.75128159     1.51500
Co349      Co  0.21454508  0.27762418  0.78454954     1.51700
Co350      Co  0.22598675  0.22093736  0.76801062     1.51600
Co351      Co  0.27069815  0.26914574  0.76546947     1.51500
O352        O  0.24137444  0.25070425  0.77983019    -1.42200
C353        C  0.30345269  0.24068687  0.79063559     1.09300
C354        C  0.18680641  0.23778297  0.80535543     1.09400
C355        C  0.26399764  0.19340170  0.78805431     1.09400
C356        C  0.25302696  0.30931684  0.80018300     1.09300
O357        O  0.78361690  0.21900278  0.25059252    -0.80300
O358        O  0.78228624  0.29270518  0.24847928    -0.80300
O359        O  0.75899390  0.23166047  0.19377386    -0.80300
O360        O  0.75061320  0.27653004  0.30396667    -0.80300
O361        O  0.78639504  0.25446927  0.21363683    -0.80400
O362        O  0.78108947  0.25607047  0.28622643    -0.80300
O363        O  0.75102876  0.31106625  0.26722143    -0.80300
O364        O  0.75597486  0.19797830  0.22956241    -0.80300
C365        C  0.77726539  0.19898271  0.23990688     1.09400
C366        C  0.77327016  0.31199655  0.25897275     1.09300
C367        C  0.78104516  0.24010830  0.19547215     1.09400
C368        C  0.77269434  0.26770450  0.30522423     1.09300
O369        O  0.73377171  0.23484296  0.30383498    -0.80300
O370        O  0.74076541  0.27273217  0.18935457    -0.80400
O371        O  0.70702125  0.21706254  0.24557683    -0.80300
O372        O  0.70615156  0.29041280  0.24468175    -0.80300
O373        O  0.73619964  0.30893674  0.22386814    -0.80300
O374        O  0.73532975  0.19960342  0.26957908    -0.80300
O375        O  0.70466073  0.25477944  0.28325799    -0.80300
O376        O  0.70985763  0.25239177  0.20645449    -0.80300
Co377      Co  0.75845121  0.22946827  0.27527279     1.51500
Co378      Co  0.76094435  0.28000313  0.22115419     1.51700
Co379      Co  0.73283381  0.22725061  0.22107841     1.51600
Co380      Co  0.72848371  0.28089558  0.27262688     1.51500
O381        O  0.74489755  0.25452111  0.24751131    -1.42200
C382        C  0.71151457  0.24293415  0.30287193     1.09300
C383        C  0.71913488  0.26328344  0.18725286     1.09400
C384        C  0.71403328  0.19860299  0.25902206     1.09400
C385        C  0.71406955  0.30939495  0.23261891     1.09300
O386        O  0.29521202  0.69647511  0.22804795    -0.80300
O387        O  0.19945832  0.71157619  0.24468992    -0.80300
O388        O  0.26285569  0.72270041  0.30121179    -0.80300
O389        O  0.22750370  0.72626410  0.19526963    -0.80300
O390        O  0.23310338  0.69994879  0.28402011    -0.80400
O391        O  0.24309713  0.69581215  0.21990545    -0.80300
O392        O  0.19094842  0.74554803  0.22329020    -0.80300
O393        O  0.29776435  0.71897224  0.26428901    -0.80300
C394        C  0.30614394  0.70135322  0.24907232     1.09400
C395        C  0.18437712  0.72405496  0.23126537     1.09300
C396        C  0.24931518  0.70323088  0.30125113     1.09400
C397        C  0.23086592  0.70287832  0.20021775     1.09300
O398        O  0.27232845  0.73240407  0.19431773    -0.80300
O399        O  0.22440329  0.74867729  0.30406761    -0.80400
O400        O  0.28870427  0.77508919  0.25472153    -0.80300
O401        O  0.21935365  0.78732830  0.23819756    -0.80300
O402        O  0.19668950  0.76355871  0.26505108    -0.80300
O403        O  0.29776755  0.74572413  0.22832257    -0.80300
O404        O  0.25793171  0.77044544  0.20204195    -0.80300
O405        O  0.25306831  0.77547417  0.29233640    -0.80300
Co406      Co  0.26910420  0.72023426  0.23035128     1.51500
Co407      Co  0.21566352  0.73104270  0.27207435     1.51700
Co408      Co  0.27299261  0.74831550  0.27538594     1.51600
Co409      Co  0.22609656  0.75725788  0.21714843     1.51500
O410        O  0.24465006  0.74185339  0.24827518    -1.42200
C411        C  0.26987147  0.75534881  0.18747580     1.09300
C412        C  0.23612568  0.76882959  0.30782781     1.09400
C413        C  0.30262249  0.76695359  0.23747852     1.09400
C414        C  0.20143244  0.78476694  0.25414687     1.09300
C415        C  0.05791024  0.82593653  0.29931841    -0.20000
C416        C  0.07022765  0.84674724  0.28809814     0.36200
C417        C  0.09452796  0.84394316  0.27838527    -0.26000
C418        C  0.10682371  0.82065127  0.27961673     0.02600
C419        C  0.09440941  0.79959090  0.29019476     0.27400
C420        C  0.07002088  0.80243393  0.29986741    -0.25100
N421        N  0.05804175  0.87077398  0.28647760    -0.82500
H422        H  0.10392328  0.86006703  0.27005281     0.13200
C423        C  0.13284348  0.81837759  0.27016570     0.02600
N424        N  0.10695408  0.77562606  0.29181461    -0.81100
H425        H  0.06075835  0.78648232  0.30868281     0.18100
C426        C  0.15270278  0.82258717  0.28690192    -0.25900
C427        C  0.17726247  0.81609704  0.28006341     0.36100
C428        C  0.18180288  0.80418594  0.25649865    -0.19900
C429        C  0.16241672  0.80303104  0.23864416    -0.25200
C430        C  0.13802461  0.80998908  0.24526031     0.27500
H431        H  0.14898232  0.82994676  0.30575806     0.13200
N432        N  0.19699704  0.82083852  0.29775934    -0.82500
H433        H  0.16570646  0.79423228  0.22034369     0.18100
N434        N  0.11863725  0.80716472  0.22683426    -0.81100
H435        H  0.19742578  0.84026294  0.30096884     0.33700
H436        H  0.21424523  0.81628593  0.28965528     0.38200
H437        H  0.10527744  0.79478942  0.23415902     0.33700
H438        H  0.11012100  0.82473579  0.22418489     0.30400
H439        H  0.09549246  0.76224041  0.30061734     0.33700
H440        H  0.11012142  0.76927368  0.27326928     0.30400
H441        H  0.06901187  0.88394297  0.29599297     0.38200
H442        H  0.05725648  0.87606136  0.26728848     0.33700
C443        C  0.78965759  0.17546964  0.24753180    -0.20000
C444        C  0.79988047  0.15794467  0.23022282     0.36200
C445        C  0.80836809  0.13455523  0.23950310    -0.26000
C446        C  0.80611914  0.12811700  0.26546371     0.02600
C447        C  0.79577261  0.14578524  0.28258772     0.27400
C448        C  0.78838116  0.16943494  0.27350939    -0.25100
N449        N  0.80198431  0.16318196  0.20340658    -0.82500
H450        H  0.81660981  0.12124573  0.22631522     0.13200
C451        C  0.81448007  0.10296167  0.27478535     0.02600
N452        N  0.79201479  0.13937196  0.30899961    -0.81100
H453        H  0.78024891  0.18284729  0.28669551     0.18100
C454        C  0.82968152  0.10173531  0.29638393    -0.25900
C455        C  0.83499396  0.07873216  0.30840725     0.36100
C456        C  0.82731025  0.05588652  0.29695031    -0.19900
C457        C  0.81326694  0.05711174  0.27437968    -0.25200
C458        C  0.80602134  0.08038982  0.26371476     0.27500
H459        H  0.83635440  0.11905676  0.30476319     0.13200
N460        N  0.84703578  0.07875754  0.33283845    -0.82500
H461        H  0.80734143  0.03986362  0.26533209     0.18100
N462        N  0.78952721  0.08117230  0.24220889    -0.81100
H463        H  0.85137176  0.09709182  0.33846950     0.33700
H464        H  0.83428892  0.07177134  0.34622094     0.38200
H465        H  0.78498806  0.06294278  0.23640574     0.33700
H466        H  0.77287349  0.08964137  0.24817524     0.30400
H467        H  0.78411485  0.15447776  0.31893600     0.33700
H468        H  0.77911475  0.12466166  0.30984437     0.30400
H469        H  0.79543844  0.18122970  0.19896629     0.38200
H470        H  0.82095062  0.16301753  0.19873052     0.33700
C471        C  0.81306598  0.20016714  0.44551171    -0.20000
C472        C  0.81938755  0.22591583  0.44517168     0.36200
C473        C  0.81494934  0.24053125  0.42318491    -0.26000
C474        C  0.80420723  0.22973079  0.40153048     0.02600
C475        C  0.79713067  0.20404664  0.40228691     0.27400
C476        C  0.80182336  0.18952413  0.42410074    -0.25100
N477        N  0.83077990  0.23708753  0.46695770    -0.82500
H478        H  0.82012890  0.26025406  0.42291281     0.13200
C479        C  0.79994063  0.24521807  0.37827236     0.02600
N480        N  0.78483717  0.19235733  0.38127187    -0.81100
H481        H  0.79676244  0.16976010  0.42432678     0.18100
C482        C  0.81451545  0.24070957  0.35658475    -0.25900
C483        C  0.80779250  0.25073013  0.33271932     0.36100
C484        C  0.78538027  0.26483163  0.33036590    -0.19900
C485        C  0.77248180  0.27167729  0.35274175    -0.25200
C486        C  0.77982243  0.26227279  0.37673785     0.27500
H487        H  0.83055156  0.22830789  0.35810270     0.13200
N488        N  0.82294788  0.24545229  0.31072080    -0.82500
H489        H  0.75574990  0.28310362  0.35140923     0.18100
N490        N  0.76658165  0.26939059  0.39944576    -0.81100
H491        H  0.83843773  0.23447824  0.31569331     0.33700
H492        H  0.82984951  0.26265287  0.30397435     0.38200
H493        H  0.75155903  0.28120416  0.39499803     0.33700
H494        H  0.75924056  0.25307112  0.40771185     0.30400
H495        H  0.79658438  0.19306238  0.36537597     0.33700
H496        H  0.76864299  0.20262460  0.37719676     0.30400
H497        H  0.81951306  0.25208984  0.47289620     0.38200
H498        H  0.84800831  0.24442992  0.46131018     0.33700
C499        C  0.19690522  0.81607481  0.45886326    -0.20000
C500        C  0.19874394  0.79080153  0.45063622     0.36200
C501        C  0.20854717  0.78556179  0.42628367    -0.26000
C502        C  0.21591208  0.80499035  0.40962704     0.02600
C503        C  0.21408589  0.83021427  0.41772377     0.27400
C504        C  0.20499789  0.83544744  0.44234687    -0.25100
N505        N  0.18958776  0.77063612  0.46645780    -0.82500
H506        H  0.20943760  0.76623270  0.41974170     0.13200
C507        C  0.22194862  0.79858526  0.38270792     0.02600
N508        N  0.22007071  0.85044685  0.40044603    -0.81100
H509        H  0.20359786  0.85487915  0.44846995     0.18100
C510        C  0.20236376  0.79002148  0.36755749    -0.25900
C511        C  0.20653424  0.78162459  0.34268281     0.36100
C512        C  0.23077935  0.78237853  0.33200393    -0.19900
C513        C  0.25034419  0.79196277  0.34675723    -0.25200
C514        C  0.24635950  0.79960127  0.37216335     0.27500
H515        H  0.18366192  0.78911052  0.37542152     0.13200
N516        N  0.18603943  0.77170872  0.32850104    -0.82500
H517        H  0.26915722  0.79185933  0.33915765     0.18100
N518        N  0.26768485  0.80665865  0.38695602    -0.81100
H519        H  0.17889976  0.75624630  0.33853599     0.33700
H520        H  0.17205396  0.78546516  0.32768567     0.38200
H521        H  0.27497121  0.82317634  0.37898538     0.33700
H522        H  0.26283557  0.81068419  0.40576647     0.30400
H523        H  0.21656163  0.86788589  0.40894833     0.33700
H524        H  0.23921851  0.84976603  0.39683500     0.30400
H525        H  0.17032756  0.77309367  0.46845841     0.38200
H526        H  0.19226928  0.75323363  0.45758585     0.33700
C527        C  0.19336377  0.04262124  0.68386715    -0.20000
C528        C  0.17838651  0.06462894  0.68577790     0.36200
C529        C  0.18963988  0.08798846  0.69065582    -0.26000
C530        C  0.21532151  0.08979594  0.69483500     0.02600
C531        C  0.23011577  0.06786026  0.69400042     0.27400
C532        C  0.21916387  0.04455789  0.68813148    -0.25100
N533        N  0.15170781  0.06307360  0.68373524    -0.82500
H534        H  0.17816700  0.10476313  0.69241339     0.13200
C535        C  0.22532681  0.11402700  0.70418010     0.02600
N536        N  0.25621765  0.06920075  0.69937778    -0.81100
H537        H  0.23088785  0.02792080  0.68696480     0.18100
C538        C  0.22839498  0.11658887  0.73038554    -0.25900
C539        C  0.23281620  0.14017684  0.74113178     0.36100
C540        C  0.23562776  0.16175181  0.72540864    -0.19900
C541        C  0.23390474  0.15900635  0.69890492    -0.25200
C542        C  0.22821147  0.13531907  0.68823691     0.27500
H543        H  0.22561271  0.10042867  0.74280597     0.13200
N544        N  0.23289385  0.14232178  0.76828534    -0.82500
H545        H  0.23514397  0.17547236  0.68667459     0.18100
N546        N  0.22438287  0.13308937  0.66139453    -0.81100
H547        H  0.21538425  0.13682827  0.77508616     0.33700
H548        H  0.24589646  0.12937981  0.77536537     0.38200
H549        H  0.24061661  0.13905168  0.65212416     0.33700
H550        H  0.20993962  0.14537036  0.65624928     0.30400
H551        H  0.25992981  0.05725835  0.71482886     0.33700
H552        H  0.26596058  0.06233028  0.68357525     0.30400
H553        H  0.14527674  0.05210837  0.69899006     0.38200
H554        H  0.14349774  0.08087788  0.68568241     0.33700
C555        C  0.16773936  0.24502626  0.72675099    -0.20000
C556        C  0.14458946  0.25778667  0.73017656     0.36200
C557        C  0.12295132  0.24807237  0.71933123    -0.26000
C558        C  0.12345248  0.22571131  0.70531577     0.02600
C559        C  0.14656910  0.21417215  0.69981301     0.27400
C560        C  0.16845030  0.22389042  0.71062388    -0.25100
N561        N  0.14206417  0.28025396  0.74501570    -0.82500
H562        H  0.10528351  0.25731597  0.72319271     0.13200
C563        C  0.09940060  0.21391532  0.69827261     0.02600
N564        N  0.14761691  0.19228727  0.68380695    -0.81100
H565        H  0.18593536  0.21411366  0.70736289     0.18100
C566        C  0.08173205  0.22789816  0.68439093    -0.25900
C567        C  0.05814486  0.21784219  0.67909857     0.36100
C568        C  0.05206306  0.19353212  0.68785394    -0.19900
C569        C  0.06961471  0.17952650  0.70168010    -0.25200
C570        C  0.09309954  0.18960603  0.70719807     0.27500
H571        H  0.08625126  0.24671008  0.67772234     0.13200
N572        N  0.04042071  0.23225417  0.66475151    -0.82500
H573        H  0.06496890  0.16075872  0.70839607     0.18100
N574        N  0.11020440  0.17543170  0.72255640    -0.81100
H575        H  0.04846735  0.23668145  0.64712373     0.33700
H576        H  0.03709862  0.24912399  0.67442086     0.38200
H577        H  0.10156998  0.17157196  0.74002706     0.33700
H578        H  0.11368875  0.15826288  0.71349379     0.30400
H579        H  0.14164717  0.19775440  0.66566238     0.33700
H580        H  0.16598823  0.18591322  0.68180950     0.30400
H581        H  0.15489992  0.29357413  0.73842566     0.38200
H582        H  0.14535665  0.27608930  0.76417294     0.33700
C583        C  0.00858176  0.96908213  0.45534974    -0.20000
C584        C  0.02863795  0.96563762  0.43824396     0.36200
C585        C  0.02739622  0.94628241  0.42013782    -0.26000
C586        C  0.00645738  0.93058615  0.41876805     0.02600
C587        C  0.98636492  0.93415503  0.43568906     0.27400
C588        C  0.98779684  0.95313879  0.45405069    -0.25100
N589        N  0.05024429  0.98151899  0.43956723    -0.82500
H590        H  0.04282228  0.94329692  0.40709345     0.13200
C591        C  0.00599648  0.91016323  0.39976091     0.02600
N592        N  0.96456591  0.91858586  0.43399633    -0.81100
H593        H  0.97265070  0.95553190  0.46753136     0.18100
C594        C  0.00639504  0.88500708  0.40812877    -0.25900
C595        C  0.00678110  0.86509029  0.39060673     0.36100
C596        C  0.00689971  0.87061727  0.36432602    -0.19900
C597        C  0.00623535  0.89576900  0.35597388    -0.25200
C598        C  0.00554252  0.91566109  0.37349663     0.27500
H599        H  0.00677217  0.88097765  0.42838230     0.13200
N600        N  0.00803756  0.83938161  0.39932717    -0.82500
H601        H  0.00631160  0.89982075  0.33571976     0.18100
N602        N  0.00441508  0.94139585  0.36482789    -0.81100
H603        H  0.00875408  0.83864981  0.41921914     0.33700
H604        H  0.99145113  0.83056685  0.39412897     0.38200
H605        H  0.00426413  0.94220111  0.34493214     0.33700
H606        H  0.98742306  0.94898537  0.37100827     0.30400
H607        H  0.95148777  0.92365698  0.44789656     0.33700
H608        H  0.95625563  0.92224745  0.41637120     0.30400
H609        H  0.04472592  0.99998887  0.43546851     0.38200
H610        H  0.06331945  0.97643297  0.42567218     0.33700
C611        C  0.87980277  0.00516746  0.35574122    -0.20000
C612        C  0.89473167  0.98354422  0.35998823     0.36200
C613        C  0.91303113  0.98404949  0.37909866    -0.26000
C614        C  0.91680138  0.00581042  0.39357495     0.02600
C615        C  0.90239473  0.02753262  0.38901358     0.27400
C616        C  0.88397788  0.02696249  0.37023020    -0.25100
N617        N  0.89143571  0.96135718  0.34479768    -0.82500
H618        H  0.92444776  0.96751914  0.38271100     0.13200
C619        C  0.93578970  0.00579853  0.41371345     0.02600
N620        N  0.90661719  0.05007801  0.40345944    -0.81100
H621        H  0.87241128  0.04349630  0.36728629     0.18100
C622        C  0.95986913  0.01420560  0.40791143    -0.25900
C623        C  0.97800831  0.01571932  0.42694504     0.36100
C624        C  0.97186696  0.00895895  0.45213378    -0.19900
C625        C  0.94774351  0.00049292  0.45788635    -0.25200
C626        C  0.92959727  0.99874128  0.43883598     0.27500
H627        H  0.96452894  0.01971309  0.38856696     0.13200
N628        N  0.00261668  0.02406209  0.42065478    -0.82500
H629        H  0.94326768  0.99485028  0.47722732     0.18100
N630        N  0.90504891  0.98957676  0.44476252    -0.81100
H631        H  0.00123347  0.04204274  0.41253929     0.33700
H632        H  0.00979911  0.01197312  0.40675101     0.38200
H633        H  0.90372653  0.98474755  0.46404962     0.33700
H634        H  0.89242805  0.00434802  0.44176642     0.30400
H635        H  0.89468003  0.06454221  0.39746023     0.33700
H636        H  0.90202439  0.04625529  0.42245201     0.30400
H637        H  0.89597034  0.96608032  0.32599013     0.38200
H638        H  0.90389452  0.94718582  0.35039548     0.33700
C639        C  0.97042360  0.04858713  0.48954173    -0.20000
C640        C  0.97312738  0.07071734  0.47455536     0.36200
C641        C  0.95345547  0.08825630  0.47358481    -0.26000
C642        C  0.93104280  0.08400816  0.48675086     0.02600
C643        C  0.92832248  0.06180292  0.50156207     0.27400
C644        C  0.94807256  0.04452825  0.50283046    -0.25100
N645        N  0.99542428  0.07612326  0.46028622    -0.82500
H646        H  0.95561279  0.10529210  0.46230896     0.13200
C647        C  0.91086028  0.10310418  0.48523022     0.02600
N648        N  0.90582358  0.05597849  0.51535931    -0.81100
H649        H  0.94583999  0.02749831  0.51409810     0.18100
C650        C  0.89237411  0.10071225  0.46660816    -0.25900
C651        C  0.87136052  0.11671447  0.46647376     0.36100
C652        C  0.86898822  0.13555145  0.48528310    -0.19900
C653        C  0.88794149  0.13832779  0.50342259    -0.25200
C654        C  0.90887754  0.12228974  0.50357066     0.27500
H655        H  0.89399670  0.08579553  0.45267311     0.13200
N656        N  0.85212004  0.11344077  0.44782030    -0.82500
H657        H  0.88625721  0.15296406  0.51765173     0.18100
N658        N  0.92807888  0.12526549  0.52232585    -0.81100
H659        H  0.85675428  0.09881755  0.43536547     0.33700
H660        H  0.83594465  0.10786901  0.45746178     0.38200
H661        H  0.92399665  0.14049458  0.53422103     0.33700
H662        H  0.92809384  0.10916498  0.53388944     0.30400
H663        H  0.91016093  0.05578344  0.53474206     0.33700
H664        H  0.89206743  0.06971805  0.51284411     0.30400
H665        H  0.00844528  0.06156247  0.46180638     0.38200
H666        H  0.99053420  0.07723929  0.44105871     0.33700
C667        C  0.00573983  0.04806207  0.53128876    -0.20000
C668        C  0.02076305  0.06995136  0.53018453     0.36200
C669        C  0.01920341  0.08749865  0.54996115    -0.26000
C670        C  0.00304781  0.08372506  0.57063452     0.02600
C671        C  0.98768302  0.06230563  0.57149330     0.27400
C672        C  0.98911695  0.04469330  0.55170100    -0.25100
N673        N  0.03750907  0.07515856  0.50936391    -0.82500
H674        H  0.03090889  0.10410393  0.54936132     0.13200
C675        C  0.00333373  0.10176125  0.59190802     0.02600
N676        N  0.97086019  0.05850820  0.59253509    -0.81100
H677        H  0.97736878  0.02814256  0.55224463     0.18100
C678        C  0.98504112  0.12061115  0.59335209    -0.25900
C679        C  0.98507083  0.13814263  0.61335816     0.36100
C680        C  0.00354424  0.13634009  0.63241416    -0.19900
C681        C  0.02183671  0.11741019  0.63076023    -0.25200
C682        C  0.02188964  0.10010140  0.61068394     0.27500
H683        H  0.97092830  0.12177093  0.57867858     0.13200
N684        N  0.96675866  0.15798035  0.61414628    -0.82500
H685        H  0.03594714  0.11593239  0.64540755     0.18100
N686        N  0.04064862  0.08076290  0.60925090    -0.81100
H687        H  0.95456218  0.15660163  0.59874327     0.33700
H688        H  0.97615969  0.17509800  0.61200702     0.38200
H689        H  0.05311323  0.08229904  0.62441627     0.33700
H690        H  0.03168638  0.06341447  0.61142883     0.30400
H691        H  0.96066940  0.04194005  0.59010877     0.33700
H692        H  0.98159521  0.05591488  0.60892206     0.30400
H693        H  0.03773943  0.06059334  0.49611292     0.38200
H694        H  0.05553766  0.07628627  0.51674526     0.33700
C695        C  0.04125524  0.00682898  0.53640532    -0.20000
C696        C  0.03626400  0.99009755  0.55674954     0.36200
C697        C  0.05402738  0.98691516  0.57613696    -0.26000
C698        C  0.07660821  0.00007713  0.57538140     0.02600
C699        C  0.08142071  0.01714025  0.55532682     0.27400
C700        C  0.06360346  0.02044225  0.53607630    -0.25100
N701        N  0.01346830  0.97599157  0.55725843    -0.82500
H702        H  0.05039867  0.97401499  0.59177650     0.13200
C703        C  0.09487131  0.99655433  0.59611829     0.02600
N704        N  0.10461674  0.03059877  0.55436033    -0.81100
H705        H  0.06764296  0.03275772  0.52011666     0.18100
C706        C  0.11491486  0.97979420  0.59289234    -0.25900
C707        C  0.13371936  0.97777190  0.61144170     0.36100
C708        C  0.13233743  0.99295520  0.63340425    -0.19900
C709        C  0.11182179  0.00908258  0.63687449    -0.25200
C710        C  0.09303028  0.01095812  0.61846280     0.27500
H711        H  0.11612056  0.96873066  0.57563455     0.13200
N712        N  0.15445004  0.96090741  0.60780318    -0.82500
H713        H  0.11070191  0.02053048  0.65388156     0.18100
N714        N  0.07227106  0.02775224  0.62207573    -0.81100
H715        H  0.15258944  0.95106177  0.59071595     0.33700
H716        H  0.17052479  0.97185582  0.60602335     0.38200
H717        H  0.07354377  0.03686526  0.63962652     0.33700
H718        H  0.07358281  0.04174633  0.60807049     0.30400
H719        H  0.10542736  0.04205162  0.53811470     0.33700
H720        H  0.10507541  0.04268149  0.57001437     0.30400
H721        H  0.01284525  0.96417512  0.57325032     0.38200
H722        H  0.99876548  0.98880167  0.55919652     0.33700
C723        C  0.04453029  0.96846013  0.49757623    -0.20000
C724        C  0.03784509  0.94300411  0.50133299     0.36200
C725        C  0.05665595  0.92456310  0.50326081    -0.26000
C726        C  0.08202428  0.93119452  0.50371790     0.02600
C727        C  0.08854098  0.95690819  0.50126227     0.27400
C728        C  0.06984101  0.97492793  0.49684500    -0.25100
N729        N  0.01206182  0.93593324  0.50308596    -0.82500
H730        H  0.05143296  0.90490329  0.50457096     0.13200
C731        C  0.10150551  0.91105268  0.50584022     0.02600
N732        N  0.11404130  0.96474233  0.50378008    -0.81100
H733        H  0.07500504  0.99435901  0.49342529     0.18100
C734        C  0.12226628  0.91173993  0.48947168    -0.25900
C735        C  0.14119835  0.89345503  0.49084702     0.36100
C736        C  0.13825799  0.87234806  0.50720038    -0.19900
C737        C  0.11740033  0.87159230  0.52355422    -0.25200
C738        C  0.09952563  0.89108869  0.52367848     0.27500
H739        H  0.12389386  0.92679124  0.47555899     0.13200
N740        N  0.16359474  0.89659900  0.47602947    -0.82500
H741        H  0.11488104  0.85567985  0.53628811     0.18100
N742        N  0.07951102  0.89074398  0.54198353    -0.81100
H743        H  0.16280670  0.91314610  0.46513796     0.33700
H744        H  0.17835797  0.89873926  0.48875861     0.38200
H745        H  0.08076352  0.87482010  0.55373539     0.33700
H746        H  0.08166470  0.90641763  0.55375618     0.30400
H747        H  0.11556439  0.98428584  0.50162422     0.33700
H748        H  0.11959114  0.96053826  0.52239617     0.30400
H749        H  0.00447814  0.94442159  0.51927178     0.38200
H750        H  0.01034235  0.91647093  0.50571364     0.33700
C751        C  0.67199600  0.29805070  0.44609801    -0.20000
C752        C  0.66731355  0.27193630  0.44512992     0.36200
C753        C  0.66838630  0.25950185  0.42154453    -0.26000
C754        C  0.67440739  0.27267269  0.39908517     0.02600
C755        C  0.67879497  0.29890926  0.40013700     0.27400
C756        C  0.67712794  0.31135935  0.42358683    -0.25100
N757        N  0.66154821  0.25822015  0.46807711    -0.82500
H758        H  0.66505269  0.23939271  0.42069590     0.13200
C759        C  0.67883307  0.25875135  0.37499313     0.02600
N760        N  0.68571116  0.31265927  0.37751238    -0.81100
H761        H  0.68060765  0.33144973  0.42448551     0.18100
C762        C  0.66610172  0.26607990  0.35285697    -0.25900
C763        C  0.67450710  0.25850503  0.32865672     0.36100
C764        C  0.69640161  0.24365098  0.32668666    -0.19900
C765        C  0.70693714  0.23360287  0.34907521    -0.25200
C766        C  0.69837082  0.24099666  0.37320534     0.27500
H767        H  0.65053139  0.27906639  0.35441462     0.13200
N768        N  0.66182501  0.26717908  0.30618044    -0.82500
H769        H  0.72317884  0.22145211  0.34785450     0.18100
N770        N  0.71028210  0.23156818  0.39582852    -0.81100
H771        H  0.64645441  0.27837947  0.31101599     0.33700
H772        H  0.65479997  0.25130407  0.29697265     0.38200
H773        H  0.72498393  0.21940566  0.39120187     0.33700
H774        H  0.71799754  0.24686000  0.40535730     0.30400
H775        H  0.68810089  0.33177882  0.38153751     0.33700
H776        H  0.70307222  0.30585913  0.37148377     0.30400
H777        H  0.64462290  0.26518402  0.47510891     0.38200
H778        H  0.65875835  0.23914585  0.46410752     0.33700
C779        C  0.24278148  0.32178592  0.72096458    -0.20000
C780        C  0.26084925  0.32168217  0.70130652     0.36200
C781        C  0.27025309  0.34464082  0.69186336    -0.26000
C782        C  0.26188565  0.36781610  0.70158028     0.02600
C783        C  0.24208269  0.36804113  0.71930844     0.27400
C784        C  0.23250584  0.34509310  0.72848296    -0.25100
N785        N  0.27030848  0.29842494  0.69139948    -0.82500
H786        H  0.28493735  0.34434844  0.67762498     0.13200
C787        C  0.27520374  0.39149610  0.69472395     0.02600
N788        N  0.23283641  0.39152636  0.72919138    -0.81100
H789        H  0.21832614  0.34561977  0.74322184     0.18100
C790        C  0.26208383  0.41189059  0.68397639    -0.25900
C791        C  0.27398892  0.43503837  0.67895229     0.36100
C792        C  0.29946460  0.43779435  0.68484548    -0.19900
C793        C  0.31264318  0.41731079  0.69520189    -0.25200
C794        C  0.30070717  0.39434020  0.70037614     0.27500
H795        H  0.24249847  0.40972373  0.67957245     0.13200
N796        N  0.26042380  0.45567079  0.66771830    -0.82500
H797        H  0.33224968  0.41930154  0.69964429     0.18100
N798        N  0.31435928  0.37414309  0.71208809    -0.81100
H799        H  0.24186093  0.45062269  0.66464106     0.33700
H800        H  0.26824194  0.45924821  0.64978925     0.38200
H801        H  0.32948154  0.36967549  0.70030317     0.33700
H802        H  0.32135902  0.38058544  0.72942117     0.30400
H803        H  0.21799098  0.38839590  0.74175028     0.33700
H804        H  0.24710913  0.39968506  0.73981617     0.30400
H805        H  0.26673717  0.29813064  0.67184647     0.38200
H806        H  0.28963444  0.29822639  0.69380534     0.33700
C807        C  0.45448407  0.67122179  0.29670959    -0.20000
C808        C  0.44287106  0.69503904  0.29459188     0.36200
C809        C  0.41909887  0.69696291  0.28381585    -0.26000
C810        C  0.40648478  0.67547432  0.27545638     0.02600
C811        C  0.41831075  0.65178145  0.27649478     0.27400
C812        C  0.44233042  0.64990053  0.28696765    -0.25100
N813        N  0.45445202  0.71708847  0.30471263    -0.82500
H814        H  0.40989018  0.71518475  0.28311809     0.13200
C815        C  0.37990362  0.67794059  0.26869935     0.02600
N816        N  0.40556352  0.62970512  0.26772355    -0.81100
H817        H  0.45128269  0.63160056  0.28835796     0.18100
C818        C  0.37248095  0.67701379  0.24317655    -0.25900
C819        C  0.34781214  0.68282454  0.23632296     0.36100
C820        C  0.33034456  0.68950473  0.25538036    -0.19900
C821        C  0.33763860  0.68886969  0.28101495    -0.25200
C822        C  0.36219727  0.68303705  0.28786380     0.27500
H823        H  0.38612619  0.67295860  0.22846401     0.13200
N824        N  0.34109483  0.68351339  0.20995456    -0.82500
H825        H  0.32439859  0.69404451  0.29573438     0.18100
N826        N  0.36955392  0.68317018  0.31416577    -0.81100
H827        H  0.35267783  0.69646247  0.20065233     0.33700
H828        H  0.34456519  0.66569458  0.20226806     0.38200
H829        H  0.35437927  0.68758671  0.32589996     0.33700
H830        H  0.37506472  0.66483269  0.31899405     0.30400
H831        H  0.41689727  0.61374472  0.26976798     0.33700
H832        H  0.39007947  0.62689913  0.27954844     0.30400
H833        H  0.45631690  0.73025777  0.28994271     0.38200
H834        H  0.44255069  0.72477175  0.31848006     0.33700
C835        C  0.67234970  0.45439569  0.28775034    -0.20000
C836        C  0.65265478  0.43966104  0.27801872     0.36200
C837        C  0.65808581  0.41702057  0.26531889    -0.26000
C838        C  0.68275055  0.40896404  0.26171300     0.02600
C839        C  0.70245515  0.42439249  0.27000434     0.27400
C840        C  0.69706885  0.44698299  0.28288144    -0.25100
N841        N  0.62720206  0.44767502  0.28120968    -0.82500
H842        H  0.64300735  0.40525500  0.25867107     0.13200
C843        C  0.68757601  0.38316780  0.25182148     0.02600
N844        N  0.72783310  0.41654024  0.26622300    -0.81100
H845        H  0.71222936  0.45827288  0.29012305     0.18100
C846        C  0.70092337  0.37973598  0.22903975    -0.25900
C847        C  0.70792224  0.35542016  0.22085917     0.36100
C848        C  0.70130634  0.33414506  0.23575153    -0.19900
C849        C  0.68644071  0.33767021  0.25758707    -0.25200
C850        C  0.67998357  0.36190284  0.26603784     0.27500
H851        H  0.70649473  0.39612740  0.21804684     0.13200
N852        N  0.72237711  0.35230455  0.19797288    -0.82500
H853        H  0.68151333  0.32159670  0.26936505     0.18100
N854        N  0.66684976  0.36507978  0.28975736    -0.81100
H855        H  0.72568983  0.36975408  0.18927848     0.33700
H856        H  0.71164577  0.34188961  0.18524100     0.38200
H857        H  0.66262818  0.34759280  0.29794502     0.33700
H858        H  0.67886705  0.37412931  0.30237286     0.30400
H859        H  0.74013593  0.42995354  0.27342500     0.33700
H860        H  0.73051183  0.40008023  0.27686648     0.30400
H861        H  0.62496239  0.46457952  0.27113264     0.38200
H862        H  0.61500455  0.43469008  0.27309690     0.33700
C863        C  0.25019498  0.68806550  0.32493684    -0.20000
C864        C  0.27131088  0.67296980  0.33047660     0.36200
C865        C  0.27867568  0.66944886  0.35595775    -0.26000
C866        C  0.26550958  0.68073477  0.37613068     0.02600
C867        C  0.24314818  0.69380738  0.37069194     0.27400
C868        C  0.23563158  0.69709530  0.34531674    -0.25100
N869        N  0.28651080  0.66228935  0.31065197    -0.82500
H870        H  0.29560503  0.65895018  0.35992436     0.13200
C871        C  0.27622904  0.67987081  0.40233482     0.02600
N872        N  0.22812477  0.70458934  0.39049104    -0.81100
H873        H  0.21964402  0.70906257  0.34143110     0.18100
C874        C  0.28589767  0.70198171  0.41312655    -0.25900
C875        C  0.29813288  0.70152139  0.43688582     0.36100
C876        C  0.30075721  0.67844996  0.45015370    -0.19900
C877        C  0.29065443  0.65646032  0.43951020    -0.25200
C878        C  0.27840318  0.65695316  0.41583241     0.27500
H879        H  0.28457910  0.71953552  0.40255825     0.13200
N880        N  0.30863493  0.72418216  0.44711646    -0.82500
H881        H  0.29262825  0.63871831  0.44964764     0.18100
N882        N  0.26844279  0.63421475  0.40523015    -0.81100
H883        H  0.30507725  0.73951623  0.43505531     0.33700
H884        H  0.32799140  0.72184740  0.44757351     0.38200
H885        H  0.27170640  0.61890548  0.41740905     0.33700
H886        H  0.24910045  0.63642351  0.40411253     0.30400
H887        H  0.23860290  0.71804831  0.40012252     0.33700
H888        H  0.22333351  0.69026196  0.40333728     0.30400
H889        H  0.27879571  0.66583551  0.29274738     0.38200
H890        H  0.28630388  0.64270999  0.31305199     0.33700
C891        C  0.33281488  0.26335900  0.71796751    -0.20000
C892        C  0.34872370  0.24257816  0.71263376     0.36200
C893        C  0.37361851  0.24678358  0.70531797    -0.26000
C894        C  0.38319843  0.27128484  0.70341586     0.02600
C895        C  0.36729967  0.29203641  0.70774538     0.27400
C896        C  0.34238696  0.28788156  0.71498399    -0.25100
N897        N  0.34066022  0.21704314  0.71577433    -0.82500
H898        H  0.38580997  0.23079901  0.70194148     0.13200
C899        C  0.41005776  0.27537191  0.69770039     0.02600
N900        N  0.37681839  0.31727205  0.70561800    -0.81100
H901        H  0.33055963  0.30397980  0.71908467     0.18100
C902        C  0.41796383  0.27687282  0.67228986    -0.25900
C903        C  0.44227577  0.28477205  0.66604271     0.36100
C904        C  0.45891129  0.29173961  0.68566255    -0.19900
C905        C  0.45155687  0.28819326  0.71113929    -0.25200
C906        C  0.42723801  0.28015878  0.71735428     0.27500
H907        H  0.40479922  0.27281088  0.65727730     0.13200
N908        N  0.44992559  0.28652683  0.63981756    -0.82500
H909        H  0.46423454  0.29332432  0.72624139     0.18100
N910        N  0.41970227  0.27742946  0.74353094    -0.81100
H911        H  0.43551619  0.28093282  0.62777114     0.33700
H912        H  0.46456360  0.27374016  0.63713998     0.38200
H913        H  0.43463559  0.28116366  0.75565476     0.33700
H914        H  0.40611790  0.29110226  0.74729680     0.30400
H915        H  0.36290797  0.33045826  0.70992325     0.33700
H916        H  0.38177795  0.32031213  0.68657406     0.30400
H917        H  0.32561698  0.21392154  0.70362552     0.38200
H918        H  0.33487856  0.21438076  0.73463573     0.33700
C919        C  0.46087715  0.53540887  0.50321055    -0.20000
C920        C  0.43524267  0.53034095  0.50061179     0.36200
C921        C  0.41794042  0.55019710  0.50083650    -0.26000
C922        C  0.42560968  0.57551104  0.50090524     0.02600
C923        C  0.45146332  0.58069760  0.50232342     0.27400
C924        C  0.46858978  0.56063693  0.50462738    -0.25100
N925        N  0.42662166  0.50517643  0.49673416    -0.82500
H926        H  0.39829256  0.54564077  0.50034147     0.13200
C927        C  0.40634966  0.59605423  0.49923048     0.02600
N928        N  0.46037065  0.60617886  0.50062625    -0.81100
H929        H  0.48826634  0.56468944  0.50653487     0.18100
C930        C  0.40812162  0.61734710  0.51492238    -0.25900
C931        C  0.39053389  0.63700609  0.51369323     0.36100
C932        C  0.36911899  0.63460489  0.49821743    -0.19900
C933        C  0.36716299  0.61302214  0.48286500    -0.25200
C934        C  0.38593327  0.59444928  0.48232374     0.27500
H935        H  0.42343087  0.61900253  0.52816891     0.13200
N936        N  0.39513258  0.65967247  0.52757610    -0.82500
H937        H  0.35094342  0.61050910  0.47098721     0.18100
N938        N  0.38444946  0.57417693  0.46431780    -0.81100
H939        H  0.39682115  0.65497943  0.54686049     0.33700
H940        H  0.41216842  0.66707776  0.52140298     0.38200
H941        H  0.36835289  0.57576864  0.45325576     0.33700
H942        H  0.39958663  0.57591064  0.45183110     0.30400
H943        H  0.47981702  0.60666086  0.50186147     0.33700
H944        H  0.45579377  0.61306802  0.48254518     0.30400
H945        H  0.41772843  0.50460554  0.47907808     0.38200
H946        H  0.41316804  0.50128091  0.51066787     0.33700
C947        C  0.46007634  0.49452330  0.54178465    -0.20000
C948        C  0.44359772  0.47364739  0.54264684     0.36200
C949        C  0.42607796  0.47194695  0.56235018    -0.26000
C950        C  0.42391141  0.49085479  0.58069536     0.02600
C951        C  0.44038898  0.51165077  0.57999897     0.27400
C952        C  0.45807138  0.51331109  0.56037136    -0.25100
N953        N  0.44350572  0.45433705  0.52348142    -0.82500
H954        H  0.41337743  0.45610000  0.56282562     0.13200
C955        C  0.40341976  0.48883633  0.59945119     0.02600
N956        N  0.43986947  0.53124612  0.59883606    -0.81100
H957        H  0.47075366  0.52916644  0.55991007     0.18100
C958        C  0.40505191  0.47090499  0.61909270    -0.25900
C959        C  0.38587764  0.46852007  0.63727279     0.36100
C960        C  0.36475007  0.48439307  0.63557855    -0.19900
C961        C  0.36287029  0.50177157  0.61541880    -0.25200
C962        C  0.38191803  0.50399742  0.59716028     0.27500
H963        H  0.42146905  0.45899160  0.62036151     0.13200
N964        N  0.38795778  0.45042135  0.65764228    -0.82500
H965        H  0.34642908  0.51362238  0.61395744     0.18100
N966        N  0.37926305  0.52106501  0.57595224    -0.81100
H967        H  0.40456335  0.44015284  0.65601264     0.33700
H968        H  0.38898787  0.46039840  0.67471514     0.38200
H969        H  0.36188326  0.53003157  0.57654211     0.33700
H970        H  0.39258170  0.53523881  0.57781589     0.30400
H971        H  0.45711715  0.53107361  0.60803919     0.33700
H972        H  0.42653348  0.52776644  0.61292408     0.30400
H973        H  0.45563928  0.45862005  0.50850729     0.38200
H974        H  0.42573220  0.45399019  0.51542006     0.33700
C975        C  0.50116704  0.62734585  0.36578375    -0.20000
C976        C  0.50058960  0.63418350  0.39167858     0.36200
C977        C  0.50017309  0.61520238  0.41041413    -0.26000
C978        C  0.50074243  0.58963817  0.40371754     0.02600
C979        C  0.50165343  0.58282360  0.37779849     0.27400
C980        C  0.50155624  0.60180662  0.35903641    -0.25100
N981        N  0.49955466  0.66030533  0.39879333    -0.82500
H982        H  0.49928365  0.62031009  0.43035537     0.13200
C983        C  0.50037252  0.57025726  0.42413020     0.02600
N984        N  0.50291807  0.55670752  0.37071783    -0.81100
H985        H  0.50200364  0.59673804  0.33907059     0.18100
C986        C  0.48092260  0.55267840  0.42500330    -0.25900
C987        C  0.48004334  0.53392175  0.44386142     0.36100
C988        C  0.49858096  0.53348426  0.46302698    -0.19900
C989        C  0.51790836  0.55121520  0.46218857    -0.25200
C990        C  0.51924556  0.56931668  0.44268933     0.27500
H991        H  0.46646002  0.55333009  0.41066107     0.13200
N992        N  0.46045198  0.51553062  0.44259864    -0.82500
H993        H  0.53215170  0.55070800  0.47673856     0.18100
N994        N  0.53981996  0.58657076  0.44144669    -0.81100
H995        H  0.46223905  0.50621957  0.42518736     0.33700
H996        H  0.46245167  0.50161704  0.45655199     0.38200
H997        H  0.55208018  0.58338269  0.45655881     0.33700
H998        H  0.54978790  0.58271824  0.42474429     0.30400
H999        H  0.50345795  0.55491125  0.35090451     0.33700
H1000       H  0.51979075  0.54948356  0.37754019     0.30400
H1001       H  0.51656294  0.66850340  0.39373706     0.38200
H1002       H  0.49800631  0.66202963  0.41856289     0.33700
C1003       C  0.53659798  0.49456465  0.46306132    -0.20000
C1004       C  0.56228789  0.49826636  0.46706088     0.36200
C1005       C  0.57893376  0.49605698  0.44650365    -0.26000
C1006       C  0.57037141  0.49350397  0.42136210     0.02600
C1007       C  0.54441880  0.49088279  0.41725432     0.27400
C1008       C  0.52807070  0.49022749  0.43824742    -0.25100
N1009       N  0.57134453  0.50489598  0.49182249    -0.82500
H1010       H  0.59874708  0.49726852  0.45010016     0.13200
C1011       C  0.58876766  0.49455878  0.39979013     0.02600
N1012       N  0.53459771  0.48962759  0.39186399    -0.81100
H1013       H  0.50834469  0.48732399  0.43516910     0.18100
C1014       C  0.58687075  0.47767836  0.37934829    -0.25900
C1015       C  0.60310809  0.47902563  0.35824304     0.36100
C1016       C  0.62376139  0.49564780  0.35878654    -0.19900
C1017       C  0.62612777  0.51180598  0.37982474    -0.25200
C1018       C  0.60824332  0.51246106  0.39939960     0.27500
H1019       H  0.57229419  0.46362897  0.37950252     0.13200
N1020       N  0.59807166  0.46414185  0.33606655    -0.82500
H1021       H  0.64185518  0.52443812  0.38100700     0.18100
N1022       N  0.60957662  0.53166860  0.41858315    -0.81100
H1023       H  0.58215475  0.45311447  0.33877002     0.33700
H1024       H  0.59409958  0.47659299  0.32110622     0.38200
H1025       H  0.62494349  0.54337594  0.41551231     0.33700
H1026       H  0.59371064  0.54304539  0.41676358     0.30400
H1027       H  0.51517701  0.48801471  0.39226035     0.33700
H1028       H  0.53858479  0.50673725  0.38279551     0.30400
H1029       H  0.56381808  0.52247453  0.49651035     0.38200
H1030       H  0.59071535  0.50699843  0.49155283     0.33700
C1031       C  0.53898631  0.45859837  0.50533439    -0.20000
C1032       C  0.55882557  0.45880258  0.52314568     0.36200
C1033       C  0.57703837  0.43986252  0.52213454    -0.26000
C1034       C  0.57587982  0.42071968  0.50397732     0.02600
C1035       C  0.55594897  0.42005015  0.48665771     0.27400
C1036       C  0.53767897  0.43904228  0.48749965    -0.25100
N1037       N  0.56184835  0.47843506  0.54161463    -0.82500
H1038       H  0.59247207  0.44030108  0.53538181     0.13200
C1039       C  0.59602542  0.40176047  0.50287876     0.02600
N1040       N  0.55429677  0.39998231  0.46845931    -0.81100
H1041       H  0.52233497  0.43871508  0.47414834     0.18100
C1042       C  0.59358968  0.37928070  0.51679224    -0.25900
C1043       C  0.61200611  0.36041701  0.51535118     0.36100
C1044       C  0.63311041  0.36434885  0.49976676    -0.19900
C1045       C  0.63568477  0.38699802  0.48615815    -0.25200
C1046       C  0.61733327  0.40587829  0.48765850     0.27500
H1047       H  0.57714221  0.37637775  0.52849144     0.13200
N1048       N  0.60926523  0.33719555  0.52930688    -0.82500
H1049       H  0.65200472  0.38983458  0.47425836     0.18100
N1050       N  0.62026039  0.42925229  0.47398209    -0.81100
H1051       H  0.59274870  0.33737291  0.53995663     0.33700
H1052       H  0.60756238  0.32266301  0.51605980     0.38200
H1053       H  0.63716527  0.42940262  0.46398829     0.33700
H1054       H  0.60615911  0.43037964  0.46034952     0.30400
H1055       H  0.53825196  0.40203160  0.45739482     0.33700
H1056       H  0.56945323  0.40158525  0.45599187     0.30400
H1057       H  0.54829590  0.49243965  0.53975887     0.38200
H1058       H  0.55977309  0.47031486  0.55967702     0.33700
C1059       C  0.50076649  0.45912638  0.54442547    -0.20000
C1060       C  0.50444989  0.46515880  0.57042724     0.36200
C1061       C  0.50263855  0.44603219  0.58879476    -0.26000
C1062       C  0.49756998  0.42113436  0.58186495     0.02600
C1063       C  0.49363083  0.41510342  0.55612194     0.27400
C1064       C  0.49551063  0.43415447  0.53765212    -0.25100
N1065       N  0.51001161  0.49024947  0.57892452    -0.82500
H1066       H  0.50567563  0.45054149  0.60865014     0.13200
C1067       C  0.49781522  0.40139516  0.60171150     0.02600
N1068       N  0.48681584  0.38992739  0.54896704    -0.81100
H1069       H  0.49224742  0.42967146  0.51784077     0.18100
C1070       C  0.47826737  0.39990576  0.61945813    -0.25900
C1071       C  0.47857006  0.38159482  0.63897225     0.36100
C1072       C  0.49869556  0.36432355  0.64033335    -0.19900
C1073       C  0.51828107  0.36621340  0.62254869    -0.25200
C1074       C  0.51813233  0.38475471  0.60356195     0.27500
H1075       H  0.46291588  0.41319292  0.61817018     0.13200
N1076       N  0.45886029  0.38080360  0.65758655    -0.82500
H1077       H  0.53382229  0.35311538  0.62329845     0.18100
N1078       N  0.53884749  0.38694984  0.58636936    -0.81100
H1079       H  0.44557502  0.39480082  0.65383975     0.33700
H1080       H  0.46664947  0.38500766  0.67527236     0.38200
H1081       H  0.55486829  0.39015986  0.59711941     0.33700
H1082       H  0.54112038  0.36972659  0.57703348     0.30400
H1083       H  0.48335350  0.38904143  0.52940963     0.33700
H1084       H  0.50206410  0.37811020  0.55233613     0.30400
H1085       H  0.51180450  0.50283787  0.56372351     0.38200
H1086       H  0.52736489  0.48970148  0.58789997     0.33700
C1087       C  0.82758112  0.28853518  0.05489927    -0.20000
C1088       C  0.83459161  0.26291940  0.05681550     0.36200
C1089       C  0.83270118  0.25060022  0.08051740    -0.26000
C1090       C  0.82407605  0.26350902  0.10206298     0.02600
C1091       C  0.81763803  0.28926273  0.10020007     0.27400
C1092       C  0.81963772  0.30152998  0.07664784    -0.25100
N1093       N  0.84433539  0.24980034  0.03503083    -0.82500
H1094       H  0.83756817  0.23081580  0.08217677     0.13200
C1095       C  0.81912080  0.24967896  0.12596865     0.02600
N1096       N  0.80852004  0.30266364  0.12212520    -0.81100
H1097       H  0.81450883  0.32126619  0.07507611     0.18100
C1098       C  0.83113437  0.25706851  0.14835987    -0.25900
C1099       C  0.82095535  0.25100288  0.17229973     0.36100
C1100       C  0.79820469  0.23762113  0.17347513    -0.19900
C1101       C  0.78883781  0.22672855  0.15114292    -0.25200
C1102       C  0.79887780  0.23303073  0.12737625     0.27500
H1103       H  0.84717304  0.26937853  0.14708569     0.13200
N1104       N  0.83255304  0.25998081  0.19513342    -0.82500
H1105       H  0.77193349  0.21561381  0.15171040     0.18100
N1106       N  0.78695181  0.22451396  0.10465419    -0.81100
H1107       H  0.84884244  0.26991011  0.19078840     0.33700
H1108       H  0.83796898  0.24418027  0.20576964     0.38200
H1109       H  0.78718742  0.20481368  0.10483680     0.33700
H1110       H  0.76833772  0.23038772  0.10523382     0.30400
H1111       H  0.79143483  0.29472388  0.12736942     0.33700
H1112       H  0.80491430  0.32154264  0.11755526     0.30400
H1113       H  0.82975953  0.24737377  0.02217370     0.38200
H1114       H  0.85019918  0.23166995  0.04020793     0.33700
C1115       C  0.03509886  0.28617734  0.82147063    -0.20000
C1116       C  0.05000318  0.28953839  0.79947927     0.36200
C1117       C  0.07353021  0.27760374  0.79792756    -0.26000
C1118       C  0.08263733  0.26264056  0.81806277     0.02600
C1119       C  0.06743861  0.25877395  0.83972726     0.27400
C1120       C  0.04393471  0.27067978  0.84127235    -0.25100
N1121       N  0.04159095  0.30578963  0.77924410    -0.82500
H1122       H  0.08525093  0.28075856  0.78135789     0.13200
C1123       C  0.10871258  0.25259431  0.81692720     0.02600
N1124       N  0.07609681  0.24296571  0.86019526    -0.81100
H1125       H  0.03256706  0.26821832  0.85820395     0.18100
C1126       C  0.12605798  0.26023291  0.83529122    -0.25900
C1127       C  0.15142438  0.25363038  0.83329590     0.36100
C1128       C  0.15987396  0.23888217  0.81265959    -0.19900
C1129       C  0.14209996  0.22968335  0.79534898    -0.25200
C1130       C  0.11673543  0.23658776  0.79711629     0.27500
H1131       H  0.12007062  0.27234804  0.85072156     0.13200
N1132       N  0.16865130  0.26259863  0.85190265    -0.82500
H1133       H  0.14821422  0.21853085  0.77924762     0.18100
N1134       N  0.09922668  0.22804700  0.77842999    -0.81100
H1135       H  0.16777384  0.28229514  0.85198544     0.33700
H1136       H  0.16280853  0.25609424  0.86977888     0.38200
H1137       H  0.10809606  0.21660993  0.76496357     0.33700
H1138       H  0.08617486  0.21670632  0.78781072     0.30400
H1139       H  0.06280649  0.24210554  0.87478539     0.33700
H1140       H  0.07797931  0.22467339  0.85308910     0.30400
H1141       H  0.04047402  0.32410349  0.78644658     0.38200
H1142       H  0.05468862  0.30626097  0.76444196     0.33700
C1143       C  0.81320176  0.45861729  0.20459191    -0.20000
C1144       C  0.83263663  0.44499185  0.21657161     0.36200
C1145       C  0.82753476  0.42154045  0.22807900    -0.26000
C1146       C  0.80337017  0.41159347  0.22818955     0.02600
C1147       C  0.78375889  0.42558992  0.21707146     0.27400
C1148       C  0.78883629  0.44907217  0.20557219    -0.25100
N1149       N  0.85749094  0.45501573  0.21690533    -0.82500
H1150       H  0.84249281  0.41079807  0.23678285     0.13200
C1151       C  0.79903452  0.38584947  0.23861912     0.02600
N1152       N  0.75894196  0.41549171  0.21677890    -0.81100
H1153       H  0.77392629  0.45946513  0.19636654     0.18100
C1154       C  0.78431204  0.38264663  0.26052259    -0.25900
C1155       C  0.77744393  0.35841931  0.26910531     0.36100
C1156       C  0.78543744  0.33695741  0.25539086    -0.19900
C1157       C  0.80185166  0.34024802  0.23466203    -0.25200
C1158       C  0.80851032  0.36445200  0.22599628     0.27500
H1159       H  0.77773410  0.39916416  0.27057624     0.13200
N1160       N  0.76190890  0.35554078  0.29129948    -0.82500
H1161       H  0.80811983  0.32397425  0.22398734     0.18100
N1162       N  0.82400244  0.36741825  0.20376888    -0.81100
H1163       H  0.75810250  0.37306457  0.29947470     0.33700
H1164       H  0.77210618  0.34532336  0.30480688     0.38200
H1165       H  0.82950267  0.34984393  0.19673188     0.33700
H1166       H  0.81319979  0.37594792  0.18958132     0.30400
H1167       H  0.74663498  0.42809961  0.20796297     0.33700
H1168       H  0.75929161  0.39923683  0.20561492     0.30400
H1169       H  0.85699774  0.47165143  0.22748932     0.38200
H1170       H  0.86960607  0.44268569  0.22637152     0.33700
C1171       C  0.03587014  0.68640687  0.18443801    -0.20000
C1172       C  0.03965250  0.68841599  0.21099156     0.36200
C1173       C  0.06379518  0.69327173  0.22028538    -0.26000
C1174       C  0.08416942  0.69572228  0.20360819     0.02600
C1175       C  0.08044845  0.69373302  0.17719313     0.27400
C1176       C  0.05640501  0.68917119  0.16789812    -0.25100
N1177       N  0.01917390  0.68503328  0.22839923    -0.82500
H1178       H  0.06680867  0.69506715  0.24058547     0.13200
C1179       C  0.10913556  0.70218294  0.21360154     0.02600
N1180       N  0.10116567  0.69639508  0.15992366    -0.81100
H1181       H  0.05364018  0.68779224  0.14752358     0.18100
C1182       C  0.12765936  0.68350798  0.21578730    -0.25900
C1183       C  0.15228826  0.68977518  0.22268031     0.36100
C1184       C  0.15850855  0.71536038  0.22655122    -0.19900
C1185       C  0.13963982  0.73375498  0.22491544    -0.25200
C1186       C  0.11519789  0.72743966  0.21869227     0.27500
H1187       H  0.12294807  0.66410646  0.21170181     0.13200
N1188       N  0.17110297  0.67049166  0.22445850    -0.82500
H1189       H  0.14393847  0.75335338  0.22832544     0.18100
N1190       N  0.09696248  0.74716054  0.21692757    -0.81100
H1191       H  0.16373070  0.65296346  0.21957442     0.33700
H1192       H  0.17635478  0.66906841  0.24355672     0.38200
H1193       H  0.08964514  0.74730925  0.19850883     0.33700
H1194       H  0.08255576  0.74322645  0.22979379     0.30400
H1195       H  0.09538906  0.69404219  0.14109539     0.33700
H1196       H  0.10766543  0.71488846  0.16132225     0.30400
H1197       H  0.01305349  0.66643311  0.22670546     0.38200
H1198       H  0.02510634  0.68718022  0.24720465     0.33700
C1199       C  0.19546735  0.45690865  0.82286774    -0.20000
C1200       C  0.19813857  0.44428882  0.79949369     0.36200
C1201       C  0.21190951  0.42179302  0.79834630    -0.26000
C1202       C  0.22295447  0.41146871  0.82023911     0.02600
C1203       C  0.22107668  0.42459094  0.84344391     0.27400
C1204       C  0.20724521  0.44710371  0.84462485    -0.25100
N1205       N  0.18589575  0.45364215  0.77714792    -0.82500
H1206       H  0.21307662  0.41177745  0.78048263     0.13200
C1207       C  0.23425896  0.38590259  0.81874096     0.02600
N1208       N  0.23311143  0.41503893  0.86581526    -0.81100
H1209       H  0.20546548  0.45682668  0.86264707     0.18100
C1210       C  0.25371378  0.38114806  0.80141621    -0.25900
C1211       C  0.26194027  0.35637632  0.79659769     0.36100
C1212       C  0.25040552  0.33583527  0.80921154    -0.19900
C1213       C  0.23217282  0.34101277  0.82787956    -0.25200
C1214       C  0.22375609  0.36562418  0.83235744     0.27500
H1215       H  0.26192708  0.39667338  0.79087192     0.13200
N1216       N  0.28137949  0.35224419  0.77829266    -0.82500
H1217       H  0.22298971  0.32573125  0.83792263     0.18100
N1218       N  0.20327879  0.36972430  0.84947286    -0.81100
H1219       H  0.29718690  0.36198373  0.78429965     0.33700
H1220       H  0.27577701  0.36005504  0.76091873     0.38200
H1221       H  0.18806649  0.35931127  0.84302161     0.33700
H1222       H  0.20830506  0.36269125  0.86737263     0.30400
H1223       H  0.24549753  0.42876360  0.87221821     0.33700
H1224       H  0.21952214  0.41242736  0.87991084     0.30400
H1225       H  0.17384285  0.43966782  0.77062887     0.38200
H1226       H  0.19944439  0.45673614  0.76312188     0.33700
C1227       C  0.18956269  0.66695051  0.05088721    -0.20000
C1228       C  0.19455144  0.64456827  0.06496873     0.36200
C1229       C  0.20205502  0.64613428  0.09061933    -0.26000
C1230       C  0.20485128  0.66956250  0.10238606     0.02600
C1231       C  0.20164081  0.69176337  0.08780672     0.27400
C1232       C  0.19405060  0.69031922  0.06227963    -0.25100
N1233       N  0.19148929  0.62033356  0.05326786    -0.82500
H1234       H  0.20489143  0.62908206  0.10170514     0.13200
C1235       C  0.20934967  0.67110329  0.13030022     0.02600
N1236       N  0.20561356  0.71590525  0.09914942    -0.81100
H1237       H  0.19054539  0.70757433  0.05173018     0.18100
C1238       C  0.23245668  0.66394107  0.14066786    -0.25900
C1239       C  0.23903056  0.67100511  0.16570366     0.36100
C1240       C  0.22203447  0.68531624  0.18039935    -0.19900
C1241       C  0.19800810  0.68975695  0.17080699    -0.25200
C1242       C  0.19137124  0.68248506  0.14614431     0.27500
H1243       H  0.24604430  0.65462102  0.12860120     0.13200
N1244       N  0.26346817  0.66542859  0.17539068    -0.82500
H1245       H  0.18506054  0.70109515  0.18169267     0.18100
N1246       N  0.16694247  0.68815274  0.13644221    -0.81100
H1247       H  0.27352320  0.65451661  0.16235111     0.33700
H1248       H  0.27307243  0.68243245  0.17706463     0.38200
H1249       H  0.15603599  0.69697791  0.15035816     0.33700
H1250       H  0.15827757  0.67101478  0.13242657     0.30400
H1251       H  0.21934046  0.72526017  0.08858001     0.33700
H1252       H  0.18906914  0.72629263  0.09771976     0.30400
H1253       H  0.20446730  0.61904159  0.03841714     0.38200
H1254       H  0.19571776  0.60585025  0.06614374     0.33700
C1255       C  0.02635308  0.49402205  0.95491827    -0.20000
C1256       C  0.04508347  0.47521457  0.95243521     0.36200
C1257       C  0.06207716  0.47680111  0.93225093    -0.26000
C1258       C  0.06131507  0.49694016  0.91495852     0.02600
C1259       C  0.04263579  0.51542304  0.91716918     0.27400
C1260       C  0.02514186  0.51367403  0.93692791    -0.25100
N1261       N  0.04840838  0.45511138  0.97056152    -0.82500
H1262       H  0.07668036  0.46270480  0.93063832     0.13200
C1263       C  0.08116305  0.49893813  0.89560175     0.02600
N1264       N  0.04149253  0.53599662  0.89943627    -0.81100
H1265       H  0.01074952  0.52798731  0.93853801     0.18100
C1266       C  0.08283882  0.48071228  0.87645031    -0.25900
C1267       C  0.10265324  0.48100426  0.85889082     0.36100
C1268       C  0.12118875  0.49969155  0.86091510    -0.19900
C1269       C  0.11919028  0.51816691  0.87983275    -0.25200
C1270       C  0.09941427  0.51779604  0.89730818     0.27500
H1271       H  0.06872948  0.46618978  0.87535243     0.13200
N1272       N  0.10404586  0.46251410  0.83901450    -0.82500
H1273       H  0.13340635  0.53252818  0.88144757     0.18100
N1274       N  0.09832719  0.53602009  0.91732758    -0.81100
H1275       H  0.08900008  0.45008056  0.84026083     0.33700
H1276       H  0.10232655  0.47203113  0.82161967     0.38200
H1277       H  0.11471176  0.53450802  0.92795268     0.33700
H1278       H  0.09783701  0.55396685  0.90901833     0.30400
H1279       H  0.02401421  0.53571117  0.89071840     0.33700
H1280       H  0.04286546  0.55277684  0.90969481     0.30400
H1281       H  0.03578594  0.45632633  0.98562913     0.38200
H1282       H  0.04515496  0.43811753  0.96117900     0.33700
C1283       C  0.02928490  0.53306664  0.99338774    -0.20000
C1284       C  0.05428450  0.52675724  0.99912648     0.36200
C1285       C  0.07267815  0.54526443  0.99709404    -0.26000
C1286       C  0.06657909  0.57078593  0.99297198     0.02600
C1287       C  0.04134254  0.57726189  0.98841324     0.27400
C1288       C  0.02336285  0.55812958  0.98721476    -0.25100
N1289       N  0.06159677  0.50233567  0.00847892    -0.82500
H1290       H  0.09189871  0.53966732  0.99994886     0.13200
C1291       C  0.08666463  0.59029433  0.99444075     0.02600
N1292       N  0.03381773  0.60319473  0.98588755    -0.81100
H1293       H  0.00434171  0.56295468  0.98244342     0.18100
C1294       C  0.08740498  0.61028994  0.97674015    -0.25900
C1295       C  0.10520416  0.62965339  0.97849905     0.36100
C1296       C  0.12475418  0.62752031  0.99649091    -0.19900
C1297       C  0.12463101  0.60668730  0.01325005    -0.25200
C1298       C  0.10516945  0.58915270  0.01351355     0.27500
H1299       H  0.07368870  0.61119316  0.96170613     0.13200
N1300       N  0.10287957  0.65166514  0.96258527    -0.82500
H1301       H  0.13960570  0.60410158  0.02675352     0.18100
N1302       N  0.10393133  0.57055165  0.03352603    -0.81100
H1303       H  0.08745025  0.65022795  0.95058264     0.33700
H1304       H  0.09946135  0.66704350  0.97449005     0.38200
H1305       H  0.11893116  0.57233188  0.04603309     0.33700
H1306       H  0.08778700  0.57414184  0.04415005     0.30400
H1307       H  0.01463002  0.60459700  0.98271308     0.33700
H1308       H  0.03719931  0.61197999  0.00330512     0.30400
H1309       H  0.04632100  0.49061948  0.01158528     0.38200
H1310       H  0.07311417  0.49398146  0.99479995     0.33700
C1311       C  0.99051188  0.53690506  0.03171486    -0.20000
C1312       C  0.97545264  0.55864728  0.02817660     0.36200
C1313       C  0.97593336  0.57771050  0.04643832    -0.26000
C1314       C  0.99074211  0.57541343  0.06817852     0.02600
C1315       C  0.00600818  0.55404205  0.07160774     0.27400
C1316       C  0.00580381  0.53494381  0.05322487    -0.25100
N1317       N  0.95999252  0.56235489  0.00615576    -0.82500
H1318       H  0.96445727  0.59437844  0.04378557     0.13200
C1319       C  0.98996645  0.59559860  0.08728961     0.02600
N1320       N  0.02149684  0.55185565  0.09378100    -0.81100
H1321       H  0.01738979  0.51833698  0.05572024     0.18100
C1322       C  0.97559758  0.59222255  0.10938407    -0.25900
C1323       C  0.97442314  0.61107107  0.12802907     0.36100
C1324       C  0.98789401  0.63357321  0.12428998    -0.19900
C1325       C  0.00220542  0.63690447  0.10209849    -0.25200
C1326       C  0.00330089  0.61809559  0.08344701     0.27500
H1327       H  0.96538886  0.57480887  0.11205821     0.13200
N1328       N  0.95994541  0.60737089  0.15083928    -0.82500
H1329       H  0.01250644  0.65425532  0.09937330     0.18100
N1330       N  0.01778409  0.62168386  0.06061426    -0.81100
H1331       H  0.95109629  0.58984276  0.15054359     0.33700
H1332       H  0.97228617  0.60692845  0.16619346     0.38200
H1333       H  0.02631529  0.63937423  0.06064158     0.33700
H1334       H  0.03213615  0.60829181  0.06067859     0.30400
H1335       H  0.03142869  0.53486029  0.09352455     0.33700
H1336       H  0.03471093  0.56627555  0.09285627     0.30400
H1337       H  0.96076318  0.54699882  0.99383495     0.38200
H1338       H  0.94157204  0.56395207  0.01246152     0.33700
C1339       C  0.95298829  0.49859936  0.03648851    -0.20000
C1340       C  0.92816600  0.50612797  0.03227829     0.36200
C1341       C  0.91128619  0.50690336  0.05272784    -0.26000
C1342       C  0.91867592  0.50013702  0.07742760     0.02600
C1343       C  0.94356837  0.49216482  0.08169395     0.27400
C1344       C  0.96043707  0.49178162  0.06119039    -0.25100
N1345       N  0.91995934  0.51282550  0.00723836    -0.82500
H1346       H  0.89219914  0.51272689  0.04928548     0.13200
C1347       C  0.89963542  0.50078993  0.09795627     0.02600
N1348       N  0.95232898  0.48414216  0.10630424    -0.81100
H1349       H  0.97946374  0.48566864  0.06445311     0.18100
C1350       C  0.88175635  0.48164629  0.09906285    -0.25900
C1351       C  0.86252371  0.48207077  0.11733621     0.36100
C1352       C  0.86137793  0.50195952  0.13519181    -0.19900
C1353       C  0.87933272  0.52120319  0.13389191    -0.25200
C1354       C  0.89841675  0.52085135  0.11540338     0.27500
H1355       H  0.88264234  0.46650112  0.08530652     0.13200
N1356       N  0.84386321  0.46268515  0.11742874    -0.82500
H1357       H  0.87861239  0.53644780  0.14752389     0.18100
N1358       N  0.91619376  0.54103055  0.11387537    -0.81100
H1359       H  0.84746998  0.44947738  0.10315298     0.33700
H1360       H  0.82681082  0.47119970  0.11298691     0.38200
H1361       H  0.91233149  0.55466862  0.12765740     0.33700
H1362       H  0.93373705  0.53358985  0.11824953     0.30400
H1363       H  0.93824287  0.48483624  0.12003544     0.33700
H1364       H  0.95761713  0.46520508  0.10483740     0.30400
H1365       H  0.90529614  0.50082560  0.00253666     0.38200
H1366       H  0.91269612  0.53111448  0.00788120     0.33700
C1367       C  0.95080571  0.45848933  0.99931693    -0.20000
C1368       C  0.93207060  0.45674084  0.98075677     0.36200
C1369       C  0.91385508  0.43809125  0.98310501    -0.26000
C1370       C  0.91408025  0.42134935  0.00382310     0.02600
C1371       C  0.93231166  0.42358887  0.02288565     0.27400
C1372       C  0.95058399  0.44218347  0.02040486    -0.25100
N1373       N  0.93144718  0.47394368  0.95964551    -0.82500
H1374       H  0.89975277  0.43636997  0.96850521     0.13200
C1375       C  0.89597123  0.40065172  0.00465657     0.02600
N1376       N  0.93223837  0.40682954  0.04449719    -0.81100
H1377       H  0.96501410  0.44372646  0.03468137     0.18100
C1378       C  0.90488587  0.37585061  0.00317967    -0.25900
C1379       C  0.88841398  0.35556886  0.00399285     0.36100
C1380       C  0.86270104  0.36016569  0.00611842    -0.19900
C1381       C  0.85363116  0.38494229  0.00724390    -0.25200
C1382       C  0.87017300  0.40538924  0.00674737     0.27500
H1383       H  0.92472237  0.37226404  0.00134878     0.13200
N1384       N  0.89774295  0.33028123  0.00242709    -0.82500
H1385       H  0.83374461  0.38823128  0.00895786     0.18100
N1386       N  0.86103834  0.43082825  0.00865157    -0.81100
H1387       H  0.90774481  0.32856451  0.98538578     0.33700
H1388       H  0.91012702  0.32738900  0.01749148     0.38200
H1389       H  0.84159515  0.43100622  0.01009067     0.33700
H1390       H  0.86781079  0.43834414  0.02563528     0.30400
H1391       H  0.94703644  0.41093241  0.05667102     0.33700
H1392       H  0.91585242  0.41024807  0.05478708     0.30400
H1393       H  0.93214373  0.46339625  0.94290093     0.38200
H1394       H  0.91431782  0.48339689  0.95998198     0.33700
C1395       C  0.98840555  0.45466168  0.95881420    -0.20000
C1396       C  0.99272931  0.42935382  0.96614383     0.36200
C1397       C  0.99286182  0.41026793  0.94771453    -0.26000
C1398       C  0.98885937  0.41589291  0.92196750     0.02600
C1399       C  0.98425127  0.44105098  0.91448020     0.27400
C1400       C  0.98412578  0.46018259  0.93298146    -0.25100
N1401       N  0.99783306  0.42300221  0.99214625    -0.82500
H1402       H  0.99638476  0.39094147  0.95350531     0.13200
C1403       C  0.98939820  0.39514668  0.90312917     0.02600
N1404       N  0.97920219  0.44697576  0.88824929    -0.81100
H1405       H  0.98057637  0.47952658  0.92730064     0.18100
C1406       C  0.96786520  0.38085476  0.89928816    -0.25900
C1407       C  0.96771339  0.36062801  0.88202466     0.36100
C1408       C  0.98936268  0.35524725  0.86737218    -0.19900
C1409       C  0.01104863  0.36947479  0.87172778    -0.25200
C1410       C  0.01140529  0.38899798  0.88978554     0.27500
H1411       H  0.95122906  0.38524766  0.91020441     0.13200
N1412       N  0.94585731  0.34519074  0.87988251    -0.82500
H1413       H  0.02779544  0.36554551  0.86084637     0.18100
N1414       N  0.03417291  0.40215340  0.89512359    -0.81100
H1415       H  0.93168171  0.35166428  0.89194135     0.33700
H1416       H  0.95058450  0.32706577  0.88617050     0.38200
H1417       H  0.04885192  0.39490530  0.88419617     0.33700
H1418       H  0.03191121  0.42094692  0.88955009     0.30400
H1419       H  0.97566900  0.46625605  0.88603289     0.33700
H1420       H  0.99528948  0.44310095  0.87766352     0.30400
H1421       H  0.98480947  0.40952825  0.99800291     0.38200
H1422       H  0.01541124  0.41446785  0.99290629     0.33700
C1423       C  0.28097063  0.76313764  0.16252051    -0.20000
C1424       C  0.28661387  0.78840191  0.15592785     0.36200
C1425       C  0.29774479  0.79371142  0.13202818    -0.26000
C1426       C  0.30326955  0.77435268  0.11471030     0.02600
C1427       C  0.29781736  0.74925926  0.12143202     0.27400
C1428       C  0.28681009  0.74394687  0.14497294    -0.25100
N1429       N  0.28172935  0.80843241  0.17358533    -0.82500
H1430       H  0.30205407  0.81300182  0.12680822     0.13200
C1431       C  0.31412281  0.78040493  0.08934824     0.02600
N1432       N  0.30306895  0.72877810  0.10452826    -0.81100
H1433       H  0.28265617  0.72443687  0.14944242     0.18100
C1434       C  0.33984019  0.77753157  0.08536786    -0.25900
C1435       C  0.35060251  0.78215167  0.06128289     0.36100
C1436       C  0.33533256  0.79009381  0.04086077    -0.19900
C1437       C  0.30950806  0.79247589  0.04481360    -0.25200
C1438       C  0.29874840  0.78763667  0.06885311     0.27500
H1439       H  0.35148090  0.77148727  0.10109390     0.13200
N1440       N  0.37693491  0.77868988  0.05740917    -0.82500
H1441       H  0.29778618  0.79867182  0.02921268     0.18100
N1442       N  0.27231155  0.79024812  0.07265147    -0.81100
H1443       H  0.38550100  0.77282066  0.07428728     0.33700
H1444       H  0.37929336  0.76406544  0.04433206     0.38200
H1445       H  0.26366237  0.79598348  0.05577098     0.33700
H1446       H  0.26522862  0.77241378  0.07709236     0.30400
H1447       H  0.32220111  0.72853687  0.10067813     0.33700
H1448       H  0.29358318  0.73197656  0.08745814     0.30400
H1449       H  0.26239477  0.81047029  0.17505497     0.38200
H1450       H  0.28842094  0.82554688  0.16638773     0.33700
C1451       C  0.45148862  0.81121089  0.19303363    -0.20000
C1452       C  0.44303345  0.78597976  0.19339624     0.36200
C1453       C  0.41838949  0.78067930  0.20128504    -0.26000
C1454       C  0.40179276  0.80002541  0.20840456     0.02600
C1455       C  0.41034709  0.82511300  0.20851425     0.27400
C1456       C  0.43506506  0.83037360  0.20114706    -0.25100
N1457       N  0.45911976  0.76592400  0.18498975    -0.82500
H1458       H  0.41186862  0.76137017  0.20137708     0.13200
C1459       C  0.37535385  0.79381146  0.21502083     0.02600
N1460       N  0.39368838  0.84525249  0.21546300    -0.81100
H1461       H  0.44141421  0.84973778  0.20115744     0.18100
C1462       C  0.36575104  0.79982103  0.23920743    -0.25900
C1463       C  0.34126329  0.79306231  0.24646740     0.36100
C1464       C  0.32604189  0.77979277  0.22919813    -0.19900
C1465       C  0.33556065  0.77450031  0.20477043    -0.25200
C1466       C  0.35977488  0.78164611  0.19739281     0.27500
H1467       H  0.37768956  0.80922335  0.25273633     0.13200
N1468       N  0.33249937  0.79818967  0.27182267    -0.82500
H1469       H  0.32431836  0.76396322  0.19154304     0.18100
N1470       N  0.36872811  0.77630168  0.17212906    -0.81100
H1471       H  0.31795809  0.81127362  0.27032813     0.33700
H1472       H  0.34642478  0.80685743  0.28251203     0.38200
H1473       H  0.35502781  0.76718210  0.16151953     0.33700
H1474       H  0.37203488  0.79355761  0.16302561     0.30400
H1475       H  0.40283530  0.86260269  0.21460454     0.33700
H1476       H  0.37951527  0.84599594  0.20186102     0.30400
H1477       H  0.45010915  0.74853882  0.18655797     0.38200
H1478       H  0.46275057  0.76880866  0.16561703     0.33700
C1479       C  0.45494549  0.19664336  0.81751286    -0.20000
C1480       C  0.44189954  0.20679802  0.83852034     0.36200
C1481       C  0.41711517  0.21493210  0.83573111    -0.26000
C1482       C  0.40496035  0.21295186  0.81228253     0.02600
C1483       C  0.41830927  0.20395660  0.79095378     0.27400
C1484       C  0.44318834  0.19592427  0.79369523    -0.25100
N1485       N  0.45379818  0.20874621  0.86279122    -0.82500
H1486       H  0.40710714  0.22218263  0.85211833     0.13200
C1487       C  0.37812759  0.21967822  0.81046013     0.02600
N1488       N  0.40655792  0.20287104  0.76653756    -0.81100
H1489       H  0.45303062  0.18827360  0.77739299     0.18100
C1490       C  0.37038355  0.24472229  0.81397834    -0.25900
C1491       C  0.34552532  0.25198555  0.80975457     0.36100
C1492       C  0.32777879  0.23370739  0.80226232    -0.19900
C1493       C  0.33537731  0.20837949  0.80095955    -0.25200
C1494       C  0.36024654  0.20126069  0.80480279     0.27500
H1495       H  0.38399493  0.25894030  0.81881770     0.13200
N1496       N  0.33933132  0.27817638  0.81187775    -0.82500
H1497       H  0.32217300  0.19405745  0.79578592     0.18100
N1498       N  0.36737198  0.17530800  0.80254511    -0.81100
H1499       H  0.33325317  0.28478625  0.79416712     0.33700
H1500       H  0.32492414  0.28009671  0.82520564     0.38200
H1501       H  0.35687466  0.16485856  0.81565737     0.33700
H1502       H  0.36264155  0.16925255  0.78427816     0.30400
H1503       H  0.41695157  0.21385850  0.75379576     0.33700
H1504       H  0.40721674  0.18420254  0.76027460     0.30400
H1505       H  0.44329632  0.19849452  0.87605801     0.38200
H1506       H  0.45346199  0.22768137  0.86820554     0.33700
C1507       C  0.31968908  0.04351904  0.81715787    -0.20000
C1508       C  0.33590506  0.06444999  0.81525263     0.36200
C1509       C  0.32595747  0.08890920  0.81384611    -0.26000
C1510       C  0.30015624  0.09312455  0.81325745     0.02600
C1511       C  0.28394398  0.07227349  0.81420876     0.27400
C1512       C  0.29378838  0.04769582  0.81645656    -0.25100
N1513       N  0.36246910  0.06077259  0.81406068    -0.82500
H1514       H  0.33845432  0.10487116  0.81244839     0.13200
C1515       C  0.29107288  0.11924144  0.80834970     0.02600
N1516       N  0.25757649  0.07591402  0.81201538    -0.81100
H1517       H  0.28114488  0.03184759  0.81763895     0.18100
C1518       C  0.29985467  0.13162568  0.78653258    -0.25900
C1519       C  0.29195177  0.15600888  0.78033610     0.36100
C1520       C  0.27505130  0.16898307  0.79653964    -0.19900
C1521       C  0.26656037  0.15675653  0.81876494    -0.25200
C1522       C  0.27451744  0.13203685  0.82480866     0.27500
H1523       H  0.31247748  0.12194557  0.77366533     0.13200
N1524       N  0.30019384  0.16688022  0.75671020    -0.82500
H1525       H  0.25338695  0.16618761  0.83120965     0.18100
N1526       N  0.26589722  0.12008219  0.84768758    -0.81100
H1527       H  0.31967938  0.16738699  0.75673064     0.33700
H1528       H  0.29458174  0.15510405  0.74191404     0.38200
H1529       H  0.27101800  0.13134132  0.86306556     0.33700
H1530       H  0.24642664  0.11949958  0.84710555     0.30400
H1531       H  0.25145951  0.06593918  0.79611488     0.33700
H1532       H  0.24908492  0.06808877  0.82816382     0.30400
H1533       H  0.36646639  0.05094699  0.79731481     0.38200
H1534       H  0.37170892  0.07804297  0.81267991     0.33700
C1535       C  0.70819138  0.25981486  0.16127392    -0.20000
C1536       C  0.68842728  0.24279129  0.15690754     0.36200
C1537       C  0.68309289  0.23491423  0.13198217    -0.26000
C1538       C  0.69687558  0.24376002  0.11100416     0.02600
C1539       C  0.71508971  0.26244409  0.11490393     0.27400
C1540       C  0.72056213  0.27024850  0.13993420    -0.25100
N1541       N  0.67440491  0.23245172  0.17773215    -0.82500
H1542       H  0.66872105  0.22092505  0.12908837     0.13200
C1543       C  0.69361890  0.23141498  0.08570529     0.02600
N1544       N  0.72857300  0.27276581  0.09356625    -0.81100
H1545       H  0.73553527  0.28356293  0.14281760     0.18100
C1546       C  0.68434989  0.24510445  0.06480186    -0.25900
C1547       C  0.68019163  0.23335357  0.04108697     0.36100
C1548       C  0.68536456  0.20729521  0.03827010    -0.19900
C1549       C  0.69519534  0.19387531  0.05908023    -0.25200
C1550       C  0.69957096  0.20566235  0.08259919     0.27500
H1551       H  0.67987726  0.26489213  0.06717274     0.13200
N1552       N  0.66951273  0.24749320  0.02037291    -0.82500
H1553       H  0.69923842  0.17396042  0.05700489     0.18100
N1554       N  0.70992912  0.19153018  0.10349440    -0.81100
H1555       H  0.66522036  0.26584606  0.02613974     0.33700
H1556       H  0.68315436  0.24927308  0.00622916     0.38200
H1557       H  0.71314493  0.17282240  0.09822837     0.33700
H1558       H  0.72734296  0.19926668  0.10764289     0.30400
H1559       H  0.74155267  0.28605839  0.09967378     0.33700
H1560       H  0.73873840  0.25816259  0.08513102     0.30400
H1561       H  0.67636717  0.21283540  0.17739320     0.38200
H1562       H  0.65559671  0.23680694  0.17485347     0.33700
C1563       C  0.67058936  0.05102610  0.21222652    -0.20000
C1564       C  0.65167393  0.06473212  0.22496129     0.36200
C1565       C  0.65705358  0.08857744  0.23517878    -0.26000
C1566       C  0.68089849  0.09906578  0.23281526     0.02600
C1567       C  0.69996753  0.08517988  0.22059348     0.27400
C1568       C  0.69467790  0.06117703  0.21063470    -0.25100
N1569       N  0.62703584  0.05439399  0.22731298    -0.82500
H1570       H  0.64254235  0.09918031  0.24480459     0.13200
C1571       C  0.68561475  0.12495814  0.24238336     0.02600
N1572       N  0.72447462  0.09577377  0.21789849    -0.81100
H1573       H  0.70913839  0.05075369  0.20073028     0.18100
C1574       C  0.70101018  0.12830462  0.26360086    -0.25900
C1575       C  0.70860068  0.15252180  0.27105441     0.36100
C1576       C  0.70094691  0.17393174  0.25689120    -0.19900
C1577       C  0.68391650  0.17054264  0.23686894    -0.25200
C1578       C  0.67638528  0.14642827  0.22942339     0.27500
H1579       H  0.70786429  0.11195963  0.27392246     0.13200
N1580       N  0.72467537  0.15514076  0.29256390    -0.82500
H1581       H  0.67769051  0.18657247  0.22567172     0.18100
N1582       N  0.66051671  0.14422956  0.20768068    -0.81100
H1583       H  0.71562520  0.14744719  0.30846269     0.33700
H1584       H  0.74072198  0.14444810  0.28915322     0.38200
H1585       H  0.64416330  0.13506298  0.21326549     0.33700
H1586       H  0.66961651  0.13319741  0.19404468     0.30400
H1587       H  0.73639093  0.08317436  0.20856624     0.33700
H1588       H  0.72301029  0.11171124  0.20617317     0.30400
H1589       H  0.62833612  0.03808644  0.23850544     0.38200
H1590       H  0.61526669  0.06683928  0.23705166     0.33700
C1591       C  0.47138166  0.99492587  0.95602314    -0.20000
C1592       C  0.47778804  0.98040493  0.93439688     0.36200
C1593       C  0.46031551  0.97765317  0.91484202    -0.26000
C1594       C  0.43679916  0.98916584  0.91639454     0.02600
C1595       C  0.43066585  0.00409870  0.93761672     0.27400
C1596       C  0.44801071  0.00672433  0.95725060    -0.25100
N1597       N  0.50156322  0.96804452  0.93173043    -0.82500
H1598       H  0.46506435  0.96637671  0.89835667     0.13200
C1599       C  0.41877908  0.98622172  0.89546093     0.02600
N1600       N  0.40684710  0.01656240  0.93905318    -0.81100
H1601       H  0.44311054  0.01772698  0.97380944     0.18100
C1602       C  0.39619973  0.97376282  0.90026222    -0.25900
C1603       C  0.37725293  0.97369721  0.88198254     0.36100
C1604       C  0.38093719  0.98631492  0.85869143    -0.19900
C1605       C  0.40388233  0.99779868  0.85340194    -0.25200
C1606       C  0.42296625  0.99781595  0.87161461     0.27500
H1607       H  0.39300276  0.96480605  0.91858544     0.13200
N1608       N  0.35393707  0.96173090  0.88745565    -0.82500
H1609       H  0.40655133  0.00744242  0.83534941     0.18100
N1610       N  0.44619921  0.01027202  0.86639403    -0.81100
H1611       H  0.34642580  0.96994899  0.90384849     0.33700
H1612       H  0.35748460  0.94272427  0.89144954     0.38200
H1613       H  0.44626039  0.01784809  0.84796931     0.33700
H1614       H  0.44758648  0.02547898  0.87887514     0.30400
H1615       H  0.40520672  0.02666577  0.95602480     0.33700
H1616       H  0.40611157  0.02980859  0.92425032     0.30400
H1617       H  0.51303924  0.97117602  0.94737799     0.38200
H1618       H  0.51058040  0.97608115  0.91598907     0.33700
C1619       C  0.47177164  0.95634903  0.99557122    -0.20000
C1620       C  0.44594735  0.95842330  0.00018948     0.36200
C1621       C  0.43074254  0.93703504  0.99762045    -0.26000
C1622       C  0.44102008  0.91302740  0.99293366     0.02600
C1623       C  0.46720803  0.91093831  0.98969636     0.27400
C1624       C  0.48192788  0.93265815  0.98985703    -0.25100
N1625       N  0.43532283  0.98209708  0.00788242    -0.82500
H1626       H  0.41077475  0.93897097  0.00013438     0.13200
C1627       C  0.42415940  0.89059161  0.99289750     0.02600
N1628       N  0.47968852  0.88707290  0.98787705    -0.81100
H1629       H  0.50163213  0.93092361  0.98596459     0.18100
C1630       C  0.42456537  0.87367769  0.97241229    -0.25900
C1631       C  0.40941820  0.85202666  0.97223835     0.36100
C1632       C  0.39118038  0.84856846  0.99161334    -0.19900
C1633       C  0.39014896  0.86629958  0.01150680    -0.25200
C1634       C  0.40701465  0.88642863  0.01293891     0.27500
H1635       H  0.43676733  0.87728351  0.95636966     0.13200
N1636       N  0.41305748  0.83341051  0.95276367    -0.82500
H1637       H  0.37608359  0.86463299  0.02622795     0.18100
N1638       N  0.40673784  0.90271542  0.03475141    -0.81100
H1639       H  0.42722060  0.83882808  0.94015462     0.33700
H1640       H  0.41914756  0.81683947  0.96167924     0.38200
H1641       H  0.39302572  0.89714807  0.04780932     0.33700
H1642       H  0.42385259  0.90060285  0.04396149     0.30400
H1643       H  0.47496536  0.87830196  0.97087356     0.33700
H1644       H  0.47415678  0.87574915  0.00323595     0.30400
H1645       H  0.44281870  0.98664828  0.02560078     0.38200
H1646       H  0.41606191  0.98047382  0.01048787     0.33700
C1647       C  0.54160009  0.04010859  0.99909856    -0.20000
C1648       C  0.53666109  0.06433835  0.00906319     0.36200
C1649       C  0.55504663  0.08304662  0.00730810    -0.26000
C1650       C  0.57913563  0.07783686  0.99776170     0.02600
C1651       C  0.58441265  0.05294551  0.98955624     0.27400
C1652       C  0.56513443  0.03510533  0.98865130    -0.25100
N1653       N  0.51356657  0.07057647  0.02152172    -0.82500
H1654       H  0.55040946  0.10181012  0.01387476     0.13200
C1655       C  0.59836085  0.09849155  0.99716871     0.02600
N1656       N  0.60942913  0.04544176  0.98317560    -0.81100
H1657       H  0.56868240  0.01679695  0.98037580     0.18100
C1658       C  0.59937455  0.11593961  0.01724529    -0.25900
C1659       C  0.61547412  0.13692612  0.01652903     0.36100
C1660       C  0.63346286  0.13918738  0.99666925    -0.19900
C1661       C  0.63293984  0.12095551  0.97717010    -0.25200
C1662       C  0.61469884  0.10209770  0.97632897     0.27500
H1663       H  0.58683225  0.11378221  0.03330994     0.13200
N1664       N  0.61260469  0.15631059  0.03533877    -0.82500
H1665       H  0.64632887  0.12140239  0.96174810     0.18100
N1666       N  0.61208502  0.08769061  0.95349736    -0.81100
H1667       H  0.59856349  0.15173458  0.04842062     0.33700
H1668       H  0.60674219  0.17268492  0.02590517     0.38200
H1669       H  0.60827880  0.10017885  0.93852587     0.33700
H1670       H  0.62917158  0.07892827  0.94958837     0.30400
H1671       H  0.61005728  0.02650912  0.97770715     0.33700
H1672       H  0.62013502  0.04689125  0.99966840     0.30400
H1673       H  0.50180645  0.05502728  0.02297932     0.38200
H1674       H  0.50451487  0.08420127  0.01042617     0.33700
C1675       C  0.50512707  0.03763130  0.95854287    -0.20000
C1676       C  0.48834025  0.05836583  0.95853694     0.36200
C1677       C  0.48978851  0.07633998  0.93892627    -0.26000
C1678       C  0.50759923  0.07431164  0.91945967     0.02600
C1679       C  0.52437303  0.05383734  0.91942649     0.27400
C1680       C  0.52291950  0.03563273  0.93895719    -0.25100
N1681       N  0.47008505  0.06224270  0.97827165    -0.82500
H1682       H  0.47696499  0.09218674  0.93895260     0.13200
C1683       C  0.50812929  0.09375048  0.89911482     0.02600
N1684       N  0.54283258  0.05172961  0.89963529    -0.81100
H1685       H  0.53578289  0.01982879  0.93903590     0.18100
C1686       C  0.52539022  0.11349189  0.90028094    -0.25900
C1687       C  0.52508629  0.13317608  0.88212840     0.36100
C1688       C  0.50744411  0.13271205  0.86218448    -0.19900
C1689       C  0.49051737  0.11259908  0.86094205    -0.25200
C1690       C  0.49068906  0.09326437  0.87925419     0.27500
H1691       H  0.53865455  0.11385506  0.91578227     0.13200
N1692       N  0.54205564  0.15394742  0.88432983    -0.82500
H1693       H  0.47695629  0.11197186  0.84571977     0.18100
N1694       N  0.47307011  0.07312593  0.87772690    -0.81100
H1695       H  0.55375193  0.15140076  0.90001946     0.33700
H1696       H  0.53147283  0.17015401  0.88790688     0.38200
H1697       H  0.45515027  0.08093498  0.87824419     0.33700
H1698       H  0.47544560  0.06429289  0.86012626     0.30400
H1699       H  0.55392225  0.03572024  0.90253087     0.33700
H1700       H  0.53344968  0.04904663  0.88246037     0.30400
H1701       H  0.47045232  0.04782136  0.99184154     0.38200
H1702       H  0.45247085  0.06192380  0.96985105     0.33700
C1703       C  0.50574803  0.96121341  0.03834162    -0.20000
C1704       C  0.52214220  0.94017229  0.03845541     0.36200
C1705       C  0.52108604  0.92291005  0.05870833    -0.26000
C1706       C  0.50407537  0.92598594  0.07874412     0.02600
C1707       C  0.48801853  0.94704407  0.07895508     0.27400
C1708       C  0.48902788  0.96449493  0.05871186    -0.25100
N1709       N  0.54001919  0.93564496  0.01850901    -0.82500
H1710       H  0.53341817  0.90667216  0.05862416     0.13200
C1711       C  0.50242439  0.90613361  0.09857477     0.02600
N1712       N  0.47077658  0.95053452  0.09967367    -0.81100
H1713       H  0.47673924  0.98075129  0.05875607     0.18100
C1714       C  0.51466194  0.90928733  0.12187435    -0.25900
C1715       C  0.51410262  0.89020674  0.14062515     0.36100
C1716       C  0.50102981  0.86767769  0.13583093    -0.19900
C1717       C  0.48852348  0.86477832  0.11262358    -0.25200
C1718       C  0.48918833  0.88376568  0.09388313     0.27500
H1719       H  0.52478434  0.92657262  0.12530150     0.13200
N1720       N  0.52662969  0.89360046  0.16449842    -0.82500
H1721       H  0.47853699  0.84745206  0.10900071     0.18100
N1722       N  0.47678626  0.88036983  0.06993390    -0.81100
H1723       H  0.53542407  0.91114816  0.16495354     0.33700
H1724       H  0.51304209  0.89380284  0.17883732     0.38200
H1725       H  0.46803485  0.86279925  0.06937801     0.33700
H1726       H  0.46268010  0.89395235  0.06869563     0.30400
H1727       H  0.46048030  0.96712166  0.09707778     0.33700
H1728       H  0.45803205  0.93568601  0.09923525     0.30400
H1729       H  0.53849229  0.94892378  0.00386762     0.38200
H1730       H  0.53610958  0.91810324  0.01050942     0.33700
C1731       C  0.62269371  0.00539729  0.14547053    -0.20000
C1732       C  0.62557883  0.02188532  0.12454029     0.36200
C1733       C  0.60820624  0.02153944  0.10471738    -0.26000
C1734       C  0.58812334  0.00476010  0.10530395     0.02600
C1735       C  0.58551586  0.98779450  0.12581233     0.27400
C1736       C  0.60273683  0.98831389  0.14584228    -0.25100
N1737       N  0.64662733  0.03835635  0.12294231    -0.82500
H1738       H  0.61056517  0.03419772  0.08861593     0.13200
C1739       C  0.57093688  0.00424799  0.08346620     0.02600
N1740       N  0.56565226  0.96982159  0.12606535    -0.81100
H1741       H  0.60059938  0.97528635  0.16166615     0.18100
C1742       C  0.58002014  0.99462643  0.06043963    -0.25900
C1743       C  0.56485217  0.99355295  0.03889221     0.36100
C1744       C  0.54021250  0.00271691  0.04018629    -0.19900
C1745       C  0.53111269  0.01254058  0.06316940    -0.25200
C1746       C  0.54609949  0.01330094  0.08494031     0.27500
H1747       H  0.59899549  0.98759839  0.05928071     0.13200
N1748       N  0.57453232  0.98279603  0.01593744    -0.82500
H1749       H  0.51208864  0.01943524  0.06423237     0.18100
N1750       N  0.53562262  0.02376295  0.10783427    -0.81100
H1751       H  0.59056812  0.99280474  0.01085911     0.33700
H1752       H  0.58025599  0.96437288  0.02003323     0.38200
H1753       H  0.52126543  0.01182607  0.11386296     0.33700
H1754       H  0.54858350  0.02438613  0.12256013     0.30400
H1755       H  0.57350716  0.95176956  0.12705951     0.33700
H1756       H  0.55508294  0.97263952  0.14258373     0.30400
H1757       H  0.64000685  0.05685330  0.12135619     0.38200
H1758       H  0.65649903  0.03409499  0.10628214     0.33700
C1759       C  0.75407482  0.84487614  0.30942332    -0.20000
C1760       C  0.77726462  0.85156205  0.32011452     0.36200
C1761       C  0.78264952  0.87692268  0.32471218    -0.26000
C1762       C  0.76540737  0.89598918  0.31904631     0.02600
C1763       C  0.74147419  0.88940002  0.31010305     0.27400
C1764       C  0.73615723  0.86394184  0.30530130    -0.25100
N1765       N  0.79585031  0.83285514  0.32558085    -0.82500
H1766       H  0.80092847  0.88187023  0.33182256     0.13200
C1767       C  0.77427653  0.92233953  0.32036470     0.02600
N1768       N  0.72212907  0.90782824  0.30607676    -0.81100
H1769       H  0.71809996  0.85918681  0.29754687     0.18100
C1770       C  0.78121880  0.93455310  0.29770287    -0.25900
C1771       C  0.79467764  0.95712294  0.29811611     0.36100
C1772       C  0.80133720  0.96778208  0.32163159    -0.19900
C1773       C  0.79318036  0.95626604  0.34434020    -0.25200
C1774       C  0.77972156  0.93357470  0.34391357     0.27500
H1775       H  0.77774310  0.92568627  0.27960863     0.13200
N1776       N  0.80301408  0.96819799  0.27464943    -0.82500
H1777       H  0.79812736  0.96453323  0.36244405     0.18100
N1778       N  0.77249348  0.92127423  0.36723049    -0.81100
H1779       H  0.81383738  0.95486311  0.26498080     0.33700
H1780       H  0.78732910  0.97218940  0.26355754     0.38200
H1781       H  0.77815929  0.93181800  0.38292737     0.33700
H1782       H  0.75301306  0.92083325  0.36776142     0.30400
H1783       H  0.71747751  0.90779104  0.28678813     0.33700
H1784       H  0.72813203  0.92598621  0.31043650     0.30400
H1785       H  0.80020412  0.83391600  0.34493596     0.38200
H1786       H  0.81190518  0.83727748  0.31513954     0.33700
C1787       C  0.73804494  0.83730327  0.22464817    -0.20000
C1788       C  0.72078884  0.83918177  0.20448945     0.36200
C1789       C  0.71159084  0.86318646  0.19731650    -0.26000
C1790       C  0.72039540  0.88524024  0.20900338     0.02600
C1791       C  0.74002258  0.88323787  0.22654655     0.27400
C1792       C  0.74838876  0.85946905  0.23448594    -0.25100
N1793       N  0.71381402  0.81713810  0.19046485    -0.82500
H1794       H  0.69719052  0.86463153  0.18298233     0.13200
C1795       C  0.70844396  0.91019953  0.20391327     0.02600
N1796       N  0.75122089  0.90542633  0.23671041    -0.81100
H1797       H  0.76219849  0.85841945  0.24948036     0.18100
C1798       C  0.69946068  0.92441853  0.22457685    -0.25900
C1799       C  0.68825900  0.94812391  0.22091879     0.36100
C1800       C  0.68575148  0.95800583  0.19610871    -0.19900
C1801       C  0.69471162  0.94377094  0.17540957    -0.25200
C1802       C  0.70605008  0.92003833  0.17904201     0.27500
H1803       H  0.70081171  0.91686911  0.24372884     0.13200
N1804       N  0.67867826  0.96165084  0.24239212    -0.82500
H1805       H  0.69291242  0.95127988  0.15627186     0.18100
N1806       N  0.71528721  0.90601885  0.15761701    -0.81100
H1807       H  0.66554812  0.95025719  0.25161130     0.33700
H1808       H  0.69339124  0.96468580  0.25499756     0.38200
H1809       H  0.71192957  0.91580903  0.14063336     0.33700
H1810       H  0.73463812  0.90458237  0.15945385     0.30400
H1811       H  0.77026673  0.90482965  0.23252660     0.33700
H1812       H  0.74913442  0.90469597  0.25646329     0.30400
H1813       H  0.70410037  0.80506484  0.20251652     0.38200
H1814       H  0.70157452  0.82196649  0.17574892     0.33700
C1815       C  0.82559777  0.74609104  0.21518869    -0.20000
C1816       C  0.84736696  0.76111487  0.21560095     0.36200
C1817       C  0.86922507  0.75260180  0.20358250    -0.26000
C1818       C  0.86994070  0.72927483  0.19127898     0.02600
C1819       C  0.84774230  0.71542972  0.18856670     0.27400
C1820       C  0.82573113  0.72406969  0.20041460    -0.25100
N1821       N  0.84803017  0.78414120  0.22970892    -0.82500
H1822       H  0.88619855  0.76344729  0.20544725     0.13200
C1823       C  0.89453108  0.71818014  0.18454096     0.02600
N1824       N  0.84794021  0.69218877  0.17463638    -0.81100
H1825       H  0.80893085  0.71295987  0.19910383     0.18100
C1826       C  0.90333726  0.69766916  0.19895325    -0.25900
C1827       C  0.92715391  0.68740060  0.19456984     0.36100
C1828       C  0.94240424  0.69780266  0.17534862    -0.19900
C1829       C  0.93362985  0.71826320  0.16081793    -0.25200
C1830       C  0.90977400  0.72862658  0.16528714     0.27500
H1831       H  0.89163738  0.68984922  0.21388376     0.13200
N1832       N  0.93579862  0.66614269  0.20920077    -0.82500
H1833       H  0.94526415  0.72583777  0.14571330     0.18100
N1834       N  0.90084361  0.74948318  0.15026923    -0.81100
H1835       H  0.92221949  0.66050243  0.22236949     0.33700
H1836       H  0.95118355  0.67203262  0.21974448     0.38200
H1837       H  0.91429936  0.75494965  0.13689610     0.33700
H1838       H  0.88544466  0.74321408  0.13996361     0.30400
H1839       H  0.83010957  0.68429814  0.17440558     0.33700
H1840       H  0.85246738  0.69649460  0.15572368     0.30400
H1841       H  0.86192980  0.78251467  0.24352493     0.38200
H1842       H  0.85305902  0.79867429  0.21719378     0.33700
C1843       C  0.84312906  0.75809605  0.29840117    -0.20000
C1844       C  0.86195894  0.73937896  0.29976373     0.36200
C1845       C  0.88709533  0.74664238  0.30285038    -0.26000
C1846       C  0.89375308  0.77218278  0.30428184     0.02600
C1847       C  0.87497224  0.79079058  0.30306556     0.27400
C1848       C  0.84997660  0.78357873  0.30026616    -0.25100
N1849       N  0.85556199  0.71316565  0.29803827    -0.82500
H1850       H  0.90158578  0.73239433  0.30391695     0.13200
C1851       C  0.92030874  0.77967089  0.30734193     0.02600
N1852       N  0.88142963  0.81703006  0.30455158    -0.81100
H1853       H  0.83577998  0.79808961  0.29888547     0.18100
C1854       C  0.93215514  0.79316424  0.28766965    -0.25900
C1855       C  0.95571131  0.80421434  0.29126879     0.36100
C1856       C  0.96779405  0.80144220  0.31494319    -0.19900
C1857       C  0.95645315  0.78692324  0.33420525    -0.25200
C1858       C  0.93281906  0.77601224  0.33065064     0.27500
H1859       H  0.92243840  0.79601319  0.26982591     0.13200
N1860       N  0.96685552  0.81921839  0.27141682    -0.82500
H1861       H  0.96568592  0.78495052  0.35242996     0.18100
N1862       N  0.92106743  0.76206664  0.35091827    -0.81100
H1863       H  0.95562059  0.81933609  0.25519625     0.33700
H1864       H  0.96757139  0.83783244  0.27782565     0.38200
H1865       H  0.93276627  0.76101369  0.36676832     0.33700
H1866       H  0.90523312  0.77214841  0.35662364     0.30400
H1867       H  0.86551835  0.82837508  0.30303654     0.33700
H1868       H  0.88879853  0.82018947  0.32265172     0.30400
H1869       H  0.84463584  0.70867223  0.31395225     0.38200
H1870       H  0.87156205  0.70189404  0.29911862     0.33700
C1871       C  0.74857293  0.66457726  0.29929764    -0.20000
C1872       C  0.76204812  0.64258109  0.29244111     0.36200
C1873       C  0.75036251  0.61883598  0.29417125    -0.26000
C1874       C  0.72564015  0.61661151  0.30260068     0.02600
C1875       C  0.71241037  0.63830746  0.30997262     0.27400
C1876       C  0.72415337  0.66189968  0.30869518    -0.25100
N1877       N  0.78739064  0.64432703  0.28365567    -0.82500
H1878       H  0.76058662  0.60193916  0.28917849     0.13200
C1879       C  0.71390573  0.59141318  0.30485215     0.02600
N1880       N  0.68701553  0.63618832  0.31857844    -0.81100
H1881       H  0.71406445  0.67840084  0.31475794     0.18100
C1882       C  0.70988638  0.58122959  0.32916914    -0.25900
C1883       C  0.69763792  0.55807985  0.33247319     0.36100
C1884       C  0.68859734  0.54506542  0.31093125    -0.19900
C1885       C  0.69315364  0.55508413  0.28650169    -0.25200
C1886       C  0.70568516  0.57819673  0.28326139     0.27500
H1887       H  0.71639345  0.59145818  0.34565528     0.13200
N1888       N  0.69456505  0.54763123  0.35762258    -0.82500
H1889       H  0.68632257  0.54520029  0.26995292     0.18100
N1890       N  0.70974600  0.58852163  0.25822498    -0.81100
H1891       H  0.70212800  0.55959371  0.37131737     0.33700
H1892       H  0.70480931  0.53084408  0.35842158     0.38200
H1893       H  0.70269840  0.57644030  0.24435339     0.33700
H1894       H  0.69953251  0.60530269  0.25688050     0.30400
H1895       H  0.67992846  0.65376189  0.32386754     0.33700
H1896       H  0.67635428  0.63009926  0.30317054     0.30400
H1897       H  0.79811754  0.65068457  0.29889093     0.38200
H1898       H  0.79437837  0.62652305  0.27903705     0.33700
C1899       C  0.76259507  0.67606629  0.22047728    -0.20000
C1900       C  0.74338230  0.65984587  0.21209064     0.36200
C1901       C  0.74931529  0.63499552  0.20443049    -0.26000
C1902       C  0.77393269  0.62596305  0.20529481     0.02600
C1903       C  0.79304879  0.64231913  0.21274859     0.27400
C1904       C  0.78733390  0.66702168  0.22008779    -0.25100
N1905       N  0.71789022  0.66826331  0.21221179    -0.82500
H1906       H  0.73462474  0.62236614  0.19854743     0.13200
C1907       C  0.77980121  0.59925655  0.19906285     0.02600
N1908       N  0.81835284  0.63360748  0.21353503    -0.81100
H1909       H  0.80238244  0.67855071  0.22714189     0.18100
C1910       C  0.77916010  0.59116965  0.17369842    -0.25900
C1911       C  0.78787639  0.56697257  0.16688587     0.36100
C1912       C  0.79768696  0.55068193  0.18585810    -0.19900
C1913       C  0.79698522  0.55844457  0.21137598    -0.25200
C1914       C  0.78810907  0.58242892  0.21806154     0.27500
H1915       H  0.77251850  0.60403631  0.15911289     0.13200
N1916       N  0.78694068  0.55895874  0.14080967    -0.82500
H1917       H  0.80423084  0.54618875  0.22619603     0.18100
N1918       N  0.78789335  0.58980883  0.24422040    -0.81100
H1919       H  0.77928467  0.57311817  0.12928721     0.33700
H1920       H  0.77482736  0.54360104  0.13994473     0.38200
H1921       H  0.77701359  0.57682165  0.25432341     0.33700
H1922       H  0.80612613  0.58852449  0.25107731     0.30400
H1923       H  0.82903805  0.64522862  0.20167743     0.33700
H1924       H  0.82484348  0.63563976  0.23215921     0.30400
H1925       H  0.71640140  0.68297314  0.19896973     0.38200
H1926       H  0.70607959  0.65393997  0.20600255     0.33700
C1927       C  0.66975144  0.77025870  0.22463351    -0.20000
C1928       C  0.65813957  0.79429765  0.22638845     0.36200
C1929       C  0.63379671  0.79787864  0.21743821    -0.26000
C1930       C  0.62012607  0.77800317  0.20720523     0.02600
C1931       C  0.63139580  0.75402091  0.20509995     0.27400
C1932       C  0.65609138  0.75039313  0.21378790    -0.25100
N1933       N  0.67028504  0.81496524  0.23858538    -0.82500
H1934       H  0.62515205  0.81629641  0.21925375     0.13200
C1935       C  0.59375664  0.78294690  0.19983106     0.02600
N1936       N  0.61734600  0.73322268  0.19533517    -0.81100
H1937       H  0.66436480  0.73175431  0.21289951     0.18100
C1938       C  0.58763441  0.78577411  0.17406654    -0.25900
C1939       C  0.56384397  0.79440517  0.16663890     0.36100
C1940       C  0.54585671  0.80076631  0.18543940    -0.19900
C1941       C  0.55165890  0.79658117  0.21117253    -0.25200
C1942       C  0.57541020  0.78779974  0.21852048     0.27500
H1943       H  0.60175018  0.78203896  0.15973870     0.13200
N1944       N  0.55799929  0.79707623  0.14006499    -0.82500
H1945       H  0.53802626  0.80131155  0.22567473     0.18100
N1946       N  0.58133726  0.78467248  0.24498483    -0.81100
H1947       H  0.57321438  0.79178302  0.12875668     0.33700
H1948       H  0.54361637  0.78449431  0.13603584     0.38200
H1949       H  0.56590789  0.78919315  0.25630021     0.33700
H1950       H  0.58510088  0.76554664  0.24808028     0.30400
H1951       H  0.62799990  0.71667758  0.19584351     0.33700
H1952       H  0.61366562  0.73696644  0.17615691     0.30400
H1953       H  0.67083297  0.83012213  0.22577850     0.38200
H1954       H  0.65944340  0.82041150  0.25421941     0.33700
C1955       C  0.66212060  0.75202701  0.30220996    -0.20000
C1956       C  0.65750680  0.72583887  0.30245314     0.36200
C1957       C  0.63311774  0.71682104  0.30437580    -0.26000
C1958       C  0.61289361  0.73332713  0.30653995     0.02600
C1959       C  0.61715521  0.75954014  0.30702606     0.27400
C1960       C  0.64171392  0.76867988  0.30435088    -0.25100
N1961       N  0.67750679  0.70808311  0.30096055    -0.82500
H1962       H  0.62997675  0.69663690  0.30449993     0.13200
C1963       C  0.58759877  0.72240227  0.30894293     0.02600
N1964       N  0.59662800  0.77666515  0.31054947    -0.81100
H1965       H  0.64491930  0.78882894  0.30416925     0.18100
C1966       C  0.57449589  0.72503517  0.33193846    -0.25900
C1967       C  0.55212196  0.71203542  0.33615143     0.36100
C1968       C  0.54243024  0.69650049  0.31694299    -0.19900
C1969       C  0.55495494  0.69468527  0.29354026    -0.25200
C1970       C  0.57765096  0.70726165  0.28943126     0.27500
H1971       H  0.58217682  0.73642580  0.34705079     0.13200
N1972       N  0.53938478  0.71438699  0.36005519    -0.82500
H1973       H  0.54751944  0.68259064  0.27886525     0.18100
N1974       N  0.59107709  0.70408026  0.26589878    -0.81100
H1975       H  0.55154261  0.70853865  0.37445768     0.33700
H1976       H  0.53529240  0.73345298  0.36288507     0.38200
H1977       H  0.58136671  0.69216537  0.25367567     0.33700
H1978       H  0.59198538  0.72165543  0.25686759     0.30400
H1979       H  0.60278432  0.79533181  0.30981355     0.33700
H1980       H  0.58437001  0.77433181  0.29537860     0.30400
H1981       H  0.67455924  0.69650210  0.28521364     0.38200
H1982       H  0.67649628  0.69698130  0.31741014     0.33700
C1983       C  0.82824193  0.29086733  0.73794542    -0.20000
C1984       C  0.83008231  0.30832166  0.75823550     0.36200
C1985       C  0.85371143  0.31380795  0.76865020    -0.26000
C1986       C  0.87549148  0.30258891  0.75896692     0.02600
C1987       C  0.87382606  0.28720275  0.73726685     0.27400
C1988       C  0.85050249  0.28177257  0.72685855    -0.25100
N1989       N  0.80800479  0.31951815  0.76896734    -0.82500
H1990       H  0.85506595  0.32607574  0.78501335     0.13200
C1991       C  0.89963726  0.30555893  0.77250364     0.02600
N1992       N  0.89554885  0.27602157  0.72601604    -0.81100
H1993       H  0.84983088  0.26871559  0.71108150     0.18100
C1994       C  0.90732617  0.28671834  0.78965603    -0.25900
C1995       C  0.93056830  0.28800436  0.80187873     0.36100
C1996       C  0.94623363  0.30884506  0.79751239    -0.19900
C1997       C  0.93834436  0.32794663  0.78067712    -0.25200
C1998       C  0.91531736  0.32635203  0.76788774     0.27500
H1999       H  0.89504991  0.27106657  0.79375301     0.13200
N2000       N  0.93789029  0.26849929  0.81929777    -0.82500
H2001       H  0.95014949  0.34423025  0.77768070     0.18100
N2002       N  0.90758865  0.34592873  0.75059874    -0.81100
H2003       H  0.92435424  0.26729890  0.83363549     0.33700
H2004       H  0.93802558  0.25141993  0.80943941     0.38200
H2005       H  0.92107983  0.36006599  0.74954682     0.33700
H2006       H  0.90647703  0.33805887  0.73243012     0.30400
H2007       H  0.90438017  0.26492649  0.73979562     0.33700
H2008       H  0.90771064  0.29046126  0.72062226     0.30400
H2009       H  0.79983179  0.33068252  0.75478272     0.38200
H2010       H  0.81259607  0.33166802  0.78381804     0.33700
C2011       C  0.83663790  0.20483037  0.74585280    -0.20000
C2012       C  0.84297572  0.18984882  0.72449809     0.36200
C2013       C  0.86793388  0.18319189  0.71989498    -0.26000
C2014       C  0.88704296  0.19121914  0.73600079     0.02600
C2015       C  0.88085350  0.20548307  0.75765153     0.27400
C2016       C  0.85584428  0.21233601  0.76234684    -0.25100
N2017       N  0.82438215  0.18233543  0.70659873    -0.82500
H2018       H  0.87252458  0.17250571  0.70296038     0.13200
C2019       C  0.91341281  0.18639444  0.72843364     0.02600
N2020       N  0.90001246  0.21303957  0.77484320    -0.81100
H2021       H  0.85153115  0.22394701  0.77871134     0.18100
C2022       C  0.92906955  0.20688038  0.72295829    -0.25900
C2023       C  0.95262888  0.20326254  0.71171613     0.36100
C2024       C  0.96094447  0.17865444  0.70593444    -0.19900
C2025       C  0.94581939  0.15808663  0.71284440    -0.25200
C2026       C  0.92221488  0.16177456  0.72393765     0.27500
H2027       H  0.92244815  0.22589793  0.72614405     0.13200
N2028       N  0.96735920  0.22474099  0.70489052    -0.82500
H2029       H  0.95208532  0.13902889  0.70900764     0.18100
N2030       N  0.90705245  0.14048518  0.73034057    -0.81100
H2031       H  0.95691336  0.23609906  0.69255976     0.33700
H2032       H  0.97074492  0.23503612  0.72144119     0.38200
H2033       H  0.91699459  0.12914219  0.74312607     0.33700
H2034       H  0.90417019  0.13008841  0.71376131     0.30400
H2035       H  0.90007811  0.23268164  0.77542896     0.33700
H2036       H  0.89544606  0.20628872  0.79300389     0.30400
H2037       H  0.82922120  0.18963719  0.68870712     0.38200
H2038       H  0.82466805  0.16267319  0.70545168     0.33700
C2039       C  0.73838492  0.20073749  0.81634537    -0.20000
C2040       C  0.75493207  0.20238279  0.83716854     0.36200
C2041       C  0.74631335  0.19748857  0.86202450    -0.26000
C2042       C  0.72146235  0.19067745  0.86662770     0.02600
C2043       C  0.70566529  0.18627458  0.84568558     0.27400
C2044       C  0.71417357  0.19164254  0.82078644    -0.25100
N2045       N  0.77996761  0.21101632  0.83349221    -0.82500
H2046       H  0.75873811  0.20050123  0.87793276     0.13200
C2047       C  0.71180541  0.18995166  0.89334580     0.02600
N2048       N  0.68084310  0.17701965  0.84989160    -0.81100
H2049       H  0.70142521  0.19007674  0.80493810     0.18100
C2050       C  0.69229082  0.20631417  0.90041531    -0.25900
C2051       C  0.68266221  0.20638224  0.92544453     0.36100
C2052       C  0.69277987  0.18984240  0.94378372    -0.19900
C2053       C  0.71256395  0.17382401  0.93690476    -0.25200
C2054       C  0.72218282  0.17369203  0.91187535     0.27500
H2055       H  0.68452449  0.21904274  0.88629173     0.13200
N2056       N  0.66225033  0.22268077  0.93219589    -0.82500
H2057       H  0.71996206  0.16078809  0.95095160     0.18100
N2058       N  0.74201827  0.15670542  0.90503706    -0.81100
H2059       H  0.65675150  0.23352801  0.91649259     0.33700
H2060       H  0.66872091  0.23528397  0.94588276     0.38200
H2061       H  0.74756682  0.14601280  0.92082079     0.33700
H2062       H  0.73496039  0.14402559  0.89172612     0.30400
H2063       H  0.67201174  0.17393867  0.83248503     0.33700
H2064       H  0.68240162  0.15933717  0.85864131     0.30400
H2065       H  0.78242641  0.22725648  0.84437845     0.38200
H2066       H  0.79205633  0.19714053  0.84049543     0.33700
C2067       C  0.76858925  0.28099314  0.83656669    -0.20000
C2068       C  0.79234009  0.28896306  0.84465353     0.36200
C2069       C  0.79657768  0.29334048  0.87047141    -0.26000
C2070       C  0.77763540  0.28979183  0.88851918     0.02600
C2071       C  0.75365876  0.28255180  0.88063150     0.27400
C2072       C  0.74932355  0.27828597  0.85460806    -0.25100
N2073       N  0.81233075  0.29243291  0.82679589    -0.82500
H2074       H  0.81496513  0.29912435  0.87657178     0.13200
C2075       C  0.78393466  0.29297436  0.91559883     0.02600
N2076       N  0.73426858  0.27836145  0.89913491    -0.81100
H2077       H  0.73116565  0.27180731  0.84856669     0.18100
C2078       C  0.77550476  0.31439218  0.92859651    -0.25900
C2079       C  0.78461673  0.31995460  0.95289761     0.36100
C2080       C  0.80223129  0.30379688  0.96434358    -0.19900
C2081       C  0.80962050  0.28168004  0.95190081    -0.25200
C2082       C  0.80076169  0.27628465  0.92749414     0.27500
H2083       H  0.76274284  0.32740872  0.91939514     0.13200
N2084       N  0.77644456  0.34228650  0.96572011    -0.82500
H2085       H  0.82331630  0.26928331  0.96057076     0.18100
N2086       N  0.80946944  0.25429860  0.91440691    -0.81100
H2087       H  0.78068143  0.35779188  0.95413818     0.33700
H2088       H  0.75706393  0.34141349  0.96770735     0.38200
H2089       H  0.82888535  0.25537034  0.91291660     0.33700
H2090       H  0.80509023  0.23852502  0.92554647     0.30400
H2091       H  0.71807075  0.27198282  0.89027399     0.33700
H2092       H  0.72979550  0.29574948  0.90725613     0.30400
H2093       H  0.82701035  0.28048890  0.83204916     0.38200
H2094       H  0.81855281  0.31102215  0.82820853     0.33700
C2095       C  0.66919952  0.22269951  0.75398281    -0.20000
C2096       C  0.65127903  0.21631165  0.73535145     0.36200
C2097       C  0.62670375  0.21027061  0.74276338    -0.26000
C2098       C  0.61933514  0.21095166  0.76843599     0.02600
C2099       C  0.63718381  0.21690758  0.78700913     0.27400
C2100       C  0.66173921  0.22260040  0.77973737    -0.25100
N2101       N  0.65772733  0.21618313  0.70885926    -0.82500
H2102       H  0.61317514  0.20548869  0.72832132     0.13200
C2103       C  0.59324324  0.20460584  0.77596154     0.02600
N2104       N  0.63039035  0.21720645  0.81341744    -0.81100
H2105       H  0.67477088  0.22779895  0.79448005     0.18100
C2106       C  0.58389479  0.18048445  0.77087558    -0.25900
C2107       C  0.56082844  0.17267278  0.78078380     0.36100
C2108       C  0.54667942  0.18921071  0.79630563    -0.19900
C2109       C  0.55514460  0.21397350  0.79969522    -0.25200
C2110       C  0.57816813  0.22181262  0.78953304     0.27500
H2111       H  0.59498777  0.16731774  0.75986235     0.13200
N2112       N  0.55207444  0.14801215  0.77445473    -0.82500
H2113       H  0.54423165  0.22705070  0.81100119     0.18100
N2114       N  0.58628619  0.24723254  0.79313017    -0.81100
H2115       H  0.55038980  0.13724228  0.79105364     0.33700
H2116       H  0.53446648  0.14983817  0.76616620     0.38200
H2117       H  0.57290521  0.25926952  0.78518282     0.33700
H2118       H  0.58689009  0.25070353  0.81269864     0.30400
H2119       H  0.64166424  0.20425576  0.82306084     0.33700
H2120       H  0.63421816  0.23513115  0.82054265     0.30400
H2121       H  0.65419138  0.19818715  0.70174199     0.38200
H2122       H  0.64603826  0.22897099  0.69943352     0.33700
C2123       C  0.67984700  0.29550428  0.73494949    -0.20000
C2124       C  0.67142226  0.29016655  0.71009639     0.36200
C2125       C  0.64614422  0.29282000  0.70412490    -0.26000
C2126       C  0.62889116  0.30268114  0.72164945     0.02600
C2127       C  0.63741919  0.30929780  0.74620852     0.27400
C2128       C  0.66260757  0.30482369  0.75285630    -0.25100
N2129       N  0.68830411  0.28139778  0.69082986    -0.82500
H2130       H  0.64000738  0.28716768  0.68538078     0.13200
C2131       C  0.60237050  0.30643316  0.71333246     0.02600
N2132       N  0.62065585  0.32084792  0.76413567    -0.81100
H2133       H  0.66891079  0.30900112  0.77194245     0.18100
C2134       C  0.58235494  0.29785588  0.72848923    -0.25900
C2135       C  0.55734330  0.30081450  0.72058655     0.36100
C2136       C  0.55199458  0.31154839  0.69647809    -0.19900
C2137       C  0.57228451  0.31888201  0.68097753    -0.25200
C2138       C  0.59699679  0.31763554  0.68950444     0.27500
H2139       H  0.58609776  0.28890445  0.74666878     0.13200
N2140       N  0.53762070  0.29345362  0.73745412    -0.82500
H2141       H  0.56892810  0.32626663  0.66203680     0.18100
N2142       N  0.61665898  0.32822785  0.67414038    -0.81100
H2143       H  0.53985586  0.27428362  0.74166293     0.33700
H2144       H  0.53953523  0.30349902  0.75439747     0.38200
H2145       H  0.60963485  0.33579524  0.65718643     0.33700
H2146       H  0.62426914  0.34325772  0.68425187     0.30400
H2147       H  0.62982969  0.32462039  0.78121804     0.33700
H2148       H  0.61522823  0.33828161  0.75653785     0.30400
H2149       H  0.68190116  0.26404836  0.68418628     0.38200
H2150       H  0.68781252  0.29418823  0.67562071     0.33700
C2151       C  0.76560327  0.28210985  0.64734866    -0.20000
C2152       C  0.75496652  0.30642962  0.64424805     0.36200
C2153       C  0.74705229  0.31425832  0.61999230    -0.26000
C2154       C  0.75033925  0.29868944  0.59881957     0.02600
C2155       C  0.76423948  0.27626637  0.60119674     0.27400
C2156       C  0.77161126  0.26800708  0.62553704    -0.25100
N2157       N  0.75092626  0.32245817  0.66588823    -0.82500
H2158       H  0.73680549  0.33178824  0.61784871     0.13200
C2159       C  0.73494552  0.30345133  0.57600563     0.02600
N2160       N  0.76926314  0.26121344  0.57909419    -0.81100
H2161       H  0.78029122  0.24963276  0.62758666     0.18100
C2162       C  0.74402399  0.31820939  0.55579410    -0.25900
C2163       C  0.72883364  0.32369116  0.53461660     0.36100
C2164       C  0.70434009  0.31411836  0.53388665    -0.19900
C2165       C  0.69541698  0.29930011  0.55404502    -0.25200
C2166       C  0.71051612  0.29378008  0.57509246     0.27500
H2167       H  0.76278010  0.32564202  0.55672481     0.13200
N2168       N  0.73800703  0.33904461  0.51400724    -0.82500
H2169       H  0.67652045  0.29218093  0.55338025     0.18100
N2170       N  0.70100365  0.27885822  0.59589607    -0.81100
H2171       H  0.75640153  0.34448188  0.51743509     0.33700
H2172       H  0.72734691  0.35558489  0.51356390     0.38200
H2173       H  0.68255925  0.27360714  0.59249590     0.33700
H2174       H  0.71141227  0.26217217  0.59667820     0.30400
H2175       H  0.78045071  0.27191151  0.56682329     0.33700
H2176       H  0.77976114  0.24529354  0.58407241     0.30400
H2177       H  0.76842109  0.32699719  0.67323551     0.38200
H2178       H  0.74259142  0.33946092  0.66033650     0.33700
C2179       C  0.79740844  0.17104662  0.53540052    -0.20000
C2180       C  0.77154722  0.16637960  0.53636956     0.36200
C2181       C  0.75863051  0.16795385  0.55972720    -0.26000
C2182       C  0.77104479  0.17465667  0.58218131     0.02600
C2183       C  0.79696530  0.17914918  0.58114710     0.27400
C2184       C  0.80990176  0.17704647  0.55796060    -0.25100
N2185       N  0.75843759  0.15959968  0.51374007    -0.82500
H2186       H  0.73887729  0.16388189  0.56027252     0.13200
C2187       C  0.75714823  0.17808876  0.60661197     0.02600
N2188       N  0.81013344  0.18652857  0.60357212    -0.81100
H2189       H  0.82975973  0.18072831  0.55747485     0.18100
C2190       C  0.76468267  0.16428508  0.62814835    -0.25900
C2191       C  0.75763396  0.17177538  0.65278731     0.36100
C2192       C  0.74284765  0.19364671  0.65613982    -0.19900
C2193       C  0.73252673  0.20522666  0.63436976    -0.25200
C2194       C  0.73944305  0.19767103  0.60978075     0.27500
H2195       H  0.77757632  0.14865643  0.62593967     0.13200
N2196       N  0.76676251  0.15792989  0.67432973    -0.82500
H2197       H  0.72068010  0.22170786  0.63629234     0.18100
N2198       N  0.72934137  0.21127711  0.58854142    -0.81100
H2199       H  0.76067663  0.13929797  0.67276538     0.33700
H2200       H  0.78623178  0.15783819  0.67347116     0.38200
H2201       H  0.74395633  0.21821084  0.57739179     0.33700
H2202       H  0.71893169  0.19882382  0.57756730     0.30400
H2203       H  0.82436761  0.17338867  0.60681384     0.33700
H2204       H  0.81835728  0.20404498  0.60004121     0.30400
H2205       H  0.74421050  0.17283037  0.51085240     0.38200
H2206       H  0.75017641  0.14202769  0.51682642     0.33700
C2207       C  0.30302407  0.73495618  0.82515709    -0.20000
C2208       C  0.32127726  0.75416272  0.82692365     0.36200
C2209       C  0.32983752  0.76160363  0.85106309    -0.26000
C2210       C  0.32091106  0.75010318  0.87339277     0.02600
C2211       C  0.30472920  0.72931399  0.87142751     0.27400
C2212       C  0.29610177  0.72189734  0.84750832    -0.25100
N2213       N  0.33022678  0.76687146  0.80444503    -0.82500
H2214       H  0.34273114  0.77719786  0.85256439     0.13200
C2215       C  0.32742098  0.76110632  0.89847242     0.02600
N2216       N  0.29647566  0.71561695  0.89346389    -0.81100
H2217       H  0.28259036  0.70679644  0.84669723     0.18100
C2218       C  0.30883877  0.77348190  0.91263206    -0.25900
C2219       C  0.31424142  0.78540393  0.93576718     0.36100
C2220       C  0.33899000  0.78476685  0.94514913    -0.19900
C2221       C  0.35758992  0.77250920  0.93081371    -0.25200
C2222       C  0.35205080  0.76063473  0.90761702     0.27500
H2223       H  0.28998156  0.77436376  0.90532091     0.13200
N2224       N  0.29428886  0.79834513  0.94868893    -0.82500
H2225       H  0.37654068  0.77210595  0.93788800     0.18100
N2226       N  0.37129371  0.74813749  0.89327102    -0.81100
H2227       H  0.28784254  0.81258760  0.93651923     0.33700
H2228       H  0.30044358  0.80741184  0.96505024     0.38200
H2229       H  0.38844028  0.74958850  0.90253738     0.33700
H2230       H  0.36693002  0.72895467  0.89277743     0.30400
H2231       H  0.28652028  0.72780532  0.90532571     0.33700
H2232       H  0.31218381  0.70913121  0.90327205     0.30400
H2233       H  0.33986365  0.75358905  0.79350205     0.38200
H2234       H  0.34311293  0.78080945  0.80917079     0.33700
C2235       C  0.21525198  0.74230884  0.83503740    -0.20000
C2236       C  0.22510915  0.75422207  0.85706300     0.36200
C2237       C  0.21802004  0.74590924  0.88151674    -0.26000
C2238       C  0.20134518  0.72585445  0.88486807     0.02600
C2239       C  0.19080886  0.71464080  0.86322332     0.27400
C2240       C  0.19762158  0.72298271  0.83871557    -0.25100
N2241       N  0.24259022  0.77451759  0.85546317    -0.82500
H2242       H  0.22603435  0.75484117  0.89807700     0.13200
C2243       C  0.19549548  0.71606104  0.91092401     0.02600
N2244       N  0.17389148  0.69397854  0.86606236    -0.81100
H2245       H  0.18978213  0.71338766  0.82246095     0.18100
C2246       C  0.17094568  0.71756081  0.92008952    -0.25900
C2247       C  0.16404290  0.70624121  0.94336979     0.36100
C2248       C  0.18198078  0.69270964  0.95770402    -0.19900
C2249       C  0.20685578  0.69238543  0.94923581    -0.25200
C2250       C  0.21377908  0.70384836  0.92592600     0.27500
H2251       H  0.15701700  0.72726240  0.90876083     0.13200
N2252       N  0.13877609  0.70817002  0.95243029    -0.82500
H2253       H  0.22067298  0.68217897  0.96024420     0.18100
N2254       N  0.23911595  0.70243219  0.91702683    -0.81100
H2255       H  0.12788002  0.71861518  0.93968153     0.33700
H2256       H  0.13905992  0.71827509  0.96946806     0.38200
H2257       H  0.25027383  0.69290683  0.93025462     0.33700
H2258       H  0.23930784  0.69163861  0.90042637     0.30400
H2259       H  0.18143611  0.67844363  0.85652839     0.33700
H2260       H  0.15717064  0.69890968  0.85714748     0.30400
H2261       H  0.23504697  0.78881332  0.84403200     0.38200
H2262       H  0.25918408  0.76792754  0.84739106     0.33700
C2263       C  0.21071913  0.82608423  0.74379631    -0.20000
C2264       C  0.21816522  0.84584616  0.75987215     0.36200
C2265       C  0.21060608  0.87075099  0.75441087    -0.26000
C2266       C  0.19560251  0.87607463  0.73318502     0.02600
C2267       C  0.18677236  0.85607413  0.71826051     0.27400
C2268       C  0.19423354  0.83132646  0.72376892    -0.25100
N2269       N  0.23493095  0.84099985  0.78048231    -0.82500
H2270       H  0.21745550  0.88606790  0.76598727     0.13200
C2271       C  0.19128023  0.90249662  0.72486672     0.02600
N2272       N  0.17169462  0.86105129  0.69633240    -0.81100
H2273       H  0.18878948  0.81638120  0.71098470     0.18100
C2274       C  0.21113897  0.91614765  0.71416069    -0.25900
C2275       C  0.20697226  0.93941036  0.70191403     0.36100
C2276       C  0.18262039  0.94938581  0.70061341    -0.19900
C2277       C  0.16296861  0.93620148  0.71233791    -0.25200
C2278       C  0.16707594  0.91287396  0.72449432     0.27500
H2279       H  0.22974352  0.90809242  0.71415546     0.13200
N2280       N  0.22725042  0.95216184  0.68964013    -0.82500
H2281       H  0.14425990  0.94393407  0.71153322     0.18100
N2282       N  0.14670002  0.89925953  0.73580869    -0.81100
H2283       H  0.23502201  0.93998259  0.67613590     0.33700
H2284       H  0.24081307  0.95579071  0.70335599     0.38200
H2285       H  0.15009791  0.89793296  0.75536374     0.33700
H2286       H  0.13003460  0.90932471  0.73370996     0.30400
H2287       H  0.18106639  0.85412116  0.68031162     0.33700
H2288       H  0.15507666  0.85100716  0.69839608     0.30400
H2289       H  0.25087045  0.85195356  0.77763899     0.38200
H2290       H  0.22633721  0.84704890  0.79729017     0.33700
C2291       C  0.29765526  0.82475499  0.76250941    -0.20000
C2292       C  0.29468101  0.84240371  0.74255202     0.36200
C2293       C  0.30188999  0.86759176  0.74619921    -0.26000
C2294       C  0.31182671  0.87528156  0.76954389     0.02600
C2295       C  0.31674407  0.85725588  0.78867879     0.27400
C2296       C  0.30964250  0.83217138  0.78495788    -0.25100
N2297       N  0.28245980  0.83538430  0.71947808    -0.82500
H2298       H  0.29826341  0.88144890  0.73142184     0.13200
C2299       C  0.31479348  0.90237967  0.77517953     0.02600
N2300       N  0.32774543  0.86485736  0.81234158    -0.81100
H2301       H  0.31195017  0.81869524  0.80036075     0.18100
C2302       C  0.29845468  0.91344494  0.79285206    -0.25900
C2303       C  0.30298779  0.93748604  0.80247674     0.36100
C2304       C  0.32406166  0.95101913  0.79403194    -0.19900
C2305       C  0.33958048  0.94058976  0.77517189    -0.25200
C2306       C  0.33514122  0.91626106  0.76564376     0.27500
H2307       H  0.28281289  0.90272958  0.80022586     0.13200
N2308       N  0.28681122  0.94709777  0.82194372    -0.82500
H2309       H  0.35595215  0.95088274  0.76898468     0.18100
N2310       N  0.35174021  0.90518447  0.74724992    -0.81100
H2311       H  0.29736637  0.95040457  0.83827677     0.33700
H2312       H  0.27939953  0.96426604  0.81563817     0.38200
H2313       H  0.36576144  0.91791549  0.74216787     0.33700
H2314       H  0.36058955  0.88983468  0.75597752     0.30400
H2315       H  0.32973819  0.84940145  0.82462496     0.33700
H2316       H  0.34572862  0.87131246  0.80830390     0.30400
H2317       H  0.26657566  0.84669274  0.71741418     0.38200
H2318       H  0.29450446  0.83929753  0.70427270     0.33700
C2319       C  0.31852643  0.70176065  0.54207830    -0.20000
C2320       C  0.33826101  0.71261571  0.55594196     0.36200
C2321       C  0.33361997  0.72372518  0.57972372    -0.26000
C2322       C  0.30950823  0.72442066  0.59011257     0.02600
C2323       C  0.28947745  0.71481128  0.57572659     0.27400
C2324       C  0.29416812  0.70373841  0.55178627    -0.25100
N2325       N  0.36312680  0.71239358  0.54588609    -0.82500
H2326       H  0.34904321  0.73145578  0.59037707     0.13200
C2327       C  0.30575527  0.73380837  0.61662166     0.02600
N2328       N  0.26462038  0.71529493  0.58598759    -0.81100
H2329       H  0.27893288  0.69548259  0.54127845     0.18100
C2330       C  0.28983416  0.75435485  0.62120689    -0.25900
C2331       C  0.28424481  0.76212691  0.64618422     0.36100
C2332       C  0.29479879  0.74922511  0.66723931    -0.19900
C2333       C  0.31194694  0.72964181  0.66244698    -0.25200
C2334       C  0.31726145  0.72160911  0.63748397     0.27500
H2335       H  0.28114188  0.76401579  0.60529848     0.13200
N2336       N  0.26716592  0.78259599  0.64998198    -0.82500
H2337       H  0.32013821  0.71944361  0.67828469     0.18100
N2338       N  0.33345748  0.70034851  0.63330033    -0.81100
H2339       H  0.25023235  0.77782788  0.64153448     0.33700
H2340       H  0.27420813  0.79846633  0.64054582     0.38200
H2341       H  0.34039738  0.69345122  0.65057894     0.33700
H2342       H  0.32272872  0.68591960  0.62551050     0.30400
H2343       H  0.25195038  0.70808860  0.57285934     0.33700
H2344       H  0.26439140  0.70301918  0.60161005     0.30400
H2345       H  0.37461094  0.70308363  0.55897490     0.38200
H2346       H  0.36919138  0.73104975  0.54435373     0.33700
C2347       C  0.20788517  0.74362817  0.67268818    -0.20000
C2348       C  0.21338496  0.73119642  0.64953911     0.36200
C2349       C  0.20619587  0.74207547  0.62622998    -0.26000
C2350       C  0.19326576  0.76505948  0.62551444     0.02600
C2351       C  0.18523585  0.77606048  0.64854107     0.27400
C2352       C  0.19260830  0.76525323  0.67190333    -0.25100
N2353       N  0.22733133  0.70812617  0.64950789    -0.82500
H2354       H  0.21187717  0.73318316  0.60858549     0.13200
C2355       C  0.18999944  0.77835342  0.60073640     0.02600
N2356       N  0.17052010  0.79876022  0.64803138    -0.81100
H2357       H  0.18780583  0.77478305  0.68943841     0.18100
C2358       C  0.17483618  0.76793888  0.58183095    -0.25900
C2359       C  0.17142810  0.78033603  0.55841467     0.36100
C2360       C  0.18377009  0.80336827  0.55347681    -0.19900
C2361       C  0.19913146  0.81362354  0.57225876    -0.25200
C2362       C  0.20240473  0.80126368  0.59575064     0.27500
H2363       H  0.16526395  0.75032521  0.58547920     0.13200
N2364       N  0.15484631  0.76952697  0.54020541    -0.82500
H2365       H  0.20851956  0.83136066  0.56871036     0.18100
N2366       N  0.21855729  0.81187558  0.61446876    -0.81100
H2367       H  0.14077518  0.78265442  0.53623004     0.33700
H2368       H  0.16482687  0.76613488  0.52342895     0.38200
H2369       H  0.23631216  0.81366924  0.60638011     0.33700
H2370       H  0.21199032  0.82993243  0.61881415     0.30400
H2371       H  0.16635123  0.80465587  0.66653610     0.33700
H2372       H  0.15352602  0.79446529  0.63941937     0.30400
H2373       H  0.24391498  0.71123109  0.63951295     0.38200
H2374       H  0.21702353  0.69455073  0.63981392     0.33700
C2375       C  0.29677338  0.65337830  0.75150275    -0.20000
C2376       C  0.31295075  0.64931018  0.73044237     0.36200
C2377       C  0.31801728  0.62454357  0.72243798    -0.26000
C2378       C  0.30787410  0.60364552  0.73518021     0.02600
C2379       C  0.29422536  0.60751390  0.75787029     0.27400
C2380       C  0.28855808  0.63230264  0.76560567    -0.25100
N2381       N  0.32309916  0.67021024  0.71630630    -0.82500
H2382       H  0.32928993  0.62148462  0.70554856     0.13200
C2383       C  0.31008678  0.57820700  0.72332570     0.02600
N2384       N  0.28562712  0.58631739  0.77260697    -0.81100
H2385       H  0.27666535  0.63511629  0.78208127     0.18100
C2386       C  0.32114892  0.55814571  0.73679413    -0.25900
C2387       C  0.32368769  0.53408707  0.72576428     0.36100
C2388       C  0.31508989  0.53009572  0.70076791    -0.19900
C2389       C  0.30392223  0.55003408  0.68737012    -0.25200
C2390       C  0.30113120  0.57397066  0.69841127     0.27500
H2391       H  0.32821162  0.56140643  0.75578492     0.13200
N2392       N  0.33592466  0.51401713  0.73937607    -0.82500
H2393       H  0.29765900  0.54693546  0.66804423     0.18100
N2394       N  0.28945151  0.59408264  0.68430935    -0.81100
H2395       H  0.34185867  0.52024111  0.75720263     0.33700
H2396       H  0.32272510  0.49995868  0.74283804     0.38200
H2397       H  0.28410841  0.58792199  0.66626849     0.33700
H2398       H  0.27308677  0.59910924  0.69391603     0.30400
H2399       H  0.27525155  0.59235971  0.78835162     0.33700
H2400       H  0.27366064  0.57576263  0.76128024     0.30400
H2401       H  0.33541882  0.67960650  0.72832531     0.38200
H2402       H  0.33367952  0.66391531  0.70080492     0.33700
C2403       C  0.17230795  0.54466954  0.79596605    -0.20000
C2404       C  0.17295771  0.54368764  0.76912922     0.36200
C2405       C  0.17762805  0.56585674  0.75515415    -0.26000
C2406       C  0.18171598  0.58878533  0.76759470     0.02600
C2407       C  0.18108058  0.58970976  0.79445087     0.27400
C2408       C  0.17599154  0.56768226  0.80834543    -0.25100
N2409       N  0.16881887  0.52023708  0.75625690    -0.82500
H2410       H  0.17838385  0.56526880  0.73454118     0.13200
C2411       C  0.18889814  0.61139939  0.75273824     0.02600
N2412       N  0.18628965  0.61288124  0.80747479    -0.81100
H2413       H  0.17558102  0.56826891  0.82897535     0.18100
C2414       C  0.17428932  0.63328750  0.75452371    -0.25900
C2415       C  0.18364393  0.65667500  0.74637719     0.36100
C2416       C  0.20811361  0.65801160  0.73640609    -0.19900
C2417       C  0.22130567  0.63556290  0.73161609    -0.25200
C2418       C  0.21205159  0.61225778  0.74003337     0.27500
H2419       H  0.15624574  0.63233540  0.76383547     0.13200
N2420       N  0.16903878  0.67922424  0.74958483    -0.82500
H2421       H  0.23998501  0.63636587  0.72371297     0.18100
N2422       N  0.22682743  0.58975150  0.73742420    -0.81100
H2423       H  0.15162340  0.67498623  0.75750413     0.33700
H2424       H  0.16570498  0.68671870  0.73145561     0.38200
H2425       H  0.24365489  0.59369916  0.72817232     0.33700
H2426       H  0.23134838  0.58347259  0.75573383     0.30400
H2427       H  0.18496905  0.61036286  0.82719957     0.33700
H2428       H  0.20481807  0.61765917  0.80356631     0.30400
H2429       H  0.15053363  0.51462240  0.76020495     0.38200
H2430       H  0.17005827  0.52273806  0.73653383     0.33700
loop_ 
_geom_bond_atom_site_label_1 
_geom_bond_atom_site_label_2 
_geom_bond_distance 
_geom_bond_site_symmetry_2 
_ccdc_geom_bond_type 
O1            C9   1.273       .  A
O1          Co21   2.019       .  S
O2           C10   1.303       .  A
O2          Co22   2.128       .  S
O3           C11   1.258       .  A
O3          Co23   1.975       .  S
O4           C12   1.269       .  A
O4          Co24   1.977       .  S
O5           C11   1.259       .  A
O5          Co22   2.014       .  S
O6           C12   1.276       .  A
O6          Co21   2.021       .  S
O7           C10   1.261       .  A
O7          Co24   1.864       .  S
O8            C9   1.261       .  A
O8          Co23   1.962       .  S
C9         C2416   1.479       .  S
C10        C2263   1.474       .  S
C11        C2235   1.502       .  S
C12        C2347   1.493       .  S
O13          C26   1.257       .  A
O13         Co21   1.971       .  S
O14          C27   1.267       .  A
O14         Co22   1.970       .  S
O15          C28   1.273       .  A
O15         Co23   2.031       .  S
O16          C29   1.299       .  A
O16         Co24   2.118       .  S
O17          C29   1.261       .  A
O17         Co22   1.868       .  S
O18          C28   1.259       .  A
O18         Co21   1.963       .  S
O19          C26   1.261       .  A
O19         Co24   2.013       .  S
O20          C27   1.279       .  A
O20         Co23   2.028       .  S
Co21         O25   2.042       .  S
Co22         O25   2.013       .  S
Co23         O25   2.048       .  S
Co24         O25   2.014       .  S
C26        C2332   1.495       .  S
C27        C2207   1.494       .  S
C28        C2375   1.496       .  S
C29        C2291   1.476       .  S
O30          C38   1.281       .  A
O30         Co50   2.030       .  S
O31          C39   1.257       .  A
O31         Co51   2.031       .  S
O32          C40   1.256       .  A
O32         Co52   1.970       .  S
O33          C41   1.300       .  A
O33         Co53   2.054       .  S
O34          C40   1.261       .  A
O34         Co51   2.020       .  S
O35          C41   1.278       .  A
O35         Co50   2.017       .  S
O36          C39   1.260       .  A
O36         Co53   1.989       .  S
O37          C38   1.269       .  A
O37         Co52   1.964       .  S
C38        C2192   1.493       .  S
C39        C2039   1.487       .  S
C40        C2011   1.494       .  S
C41        C2095   1.498       .  S
O42          C55   1.244       .  A
O42         Co50   1.954       .  S
O43          C56   1.271       .  A
O43         Co51   1.971       .  S
O44          C57   1.258       .  A
O44         Co52   2.012       .  S
O45          C58   1.283       .  A
O45         Co53   1.990       .  S
O46          C58   1.277       .  A
O46         Co51   1.958       .  S
O47          C57   1.247       .  A
O47         Co50   1.961       .  S
O48          C55   1.247       .  A
O48         Co53   2.015       .  S
O49          C56   1.280       .  A
O49         Co52   2.029       .  S
Co50         O54   2.036       .  S
Co51         O54   2.075       .  S
Co52         O54   2.066       .  S
Co53         O54   2.064       .  S
C55        C2123   1.491       .  S
C56        C1983   1.500       .  S
C57        C2151   1.486       .  S
C58        C2067   1.476       .  S
O59          C67   1.269       .  A
O59         Co79   2.028       .  S
O60          C68   1.275       .  A
O60         Co80   2.003       .  S
O61          C69   1.294       .  A
O61         Co81   2.044       .  S
O62          C70   1.271       .  A
O62         Co82   1.980       .  S
O63          C69   1.273       .  A
O63         Co80   2.001       .  S
O64          C70   1.266       .  A
O64         Co79   2.023       .  S
O65          C68   1.296       .  A
O65         Co82   2.041       .  S
O66          C67   1.272       .  A
O66         Co81   1.979       .  S
C67        C1927   1.499       .  S
C68        C1815   1.490       .  S
C69        C1787   1.483       .  S
C70        C1899   1.496       .  S
O71          C84   1.287       .  A
O71         Co79   2.044       .  S
O72          C85   1.251       .  A
O72         Co80   1.984       .  S
O73          C86   1.267       .  A
O73         Co81   1.936       .  S
O74          C87   1.248       .  A
O74         Co82   1.998       .  S
O75          C87   1.251       .  A
O75         Co80   1.980       .  S
O76          C86   1.285       .  A
O76         Co79   2.040       .  S
O77          C84   1.267       .  A
O77         Co82   1.931       .  S
O78          C85   1.248       .  A
O78         Co81   1.987       .  S
Co79         O83   2.228       .  S
Co80         O83   2.090       .  S
Co81         O83   1.981       .  S
Co82         O83   1.979       .  S
C84        C1871   1.494       .  S
C85        C1759   1.489       .  S
C86        C1955   1.490       .  S
C87        C1843   1.491       .  S
C88        C1744   1.484       .  S
C88          C89   1.416   1_545  A
C88          C93   1.416   1_554  A
C89        C1703   1.492       .  S
C89          C90   1.415   1_554  A
C90        C1619   1.497       .  S
C90          C91   1.417       .  A
C91        C1591   1.483       .  S
C91          C92   1.417   1_565  A
C92        C1675   1.491       .  S
C92          C93   1.415       .  A
C93        C1647   1.494       .  S
C94        C1800   1.491       .  S
C94          C95   1.413   1_565  A
C94          C99   1.404       .  A
C95          C96   1.410       .  A
C95         H100   1.083       .  S
C96        C1563   1.489       .  S
C96          C97   1.404       .  A
C97          C98   1.402       .  A
C97         H101   1.084       .  S
C98        C1731   1.479       .  S
C98          C99   1.399   1_545  A
C99         H102   1.084       .  S
C103       C2052   1.485       .  S
C103        C104   1.400       .  A
C103        C108   1.405       .  A
C104        C105   1.412       .  A
C104        H109   1.081       .  S
C105       C1660   1.517       .  S
C105        C106   1.415   1_556  A
C106        C107   1.411       .  A
C106        H110   1.079       .  S
C107       C1548   1.497       .  S
C107        C108   1.409   1_554  A
C108        H111   1.083       .  S
C112       C2304   1.476       .  S
C112        C113   1.401       .  A
C112        C117   1.409       .  A
C113        C114   1.394       .  A
C113        H118   1.085       .  S
C114       C1604   1.470       .  S
C114        C115   1.397   1_565  A
C115        C116   1.405       .  A
C115        H119   1.084       .  S
C116       C1507   1.491       .  S
C116        C117   1.411   1_545  A
C117        H120   1.083       .  S
C121       C2108   1.489       .  S
C121        C122   1.408       .  A
C121        C126   1.410       .  A
C122        C123   1.404       .  A
C122        H127   1.083       .  S
C123       C1688   1.489       .  S
C123        C124   1.402       .  A
C124        C125   1.403       .  A
C124        H128   1.084       .  S
C125       C1479   1.487       .  S
C125        C126   1.409       .  A
C126        H129   1.084       .  S
C130       C1940   1.498       .  S
C130        C131   1.407       .  A
C130        C135   1.415       .  A
C131        C132   1.400       .  A
C131        H136   1.084       .  S
C132       C1716   1.483       .  S
C132        C133   1.400       .  A
C133        C134   1.407       .  A
C133        H137   1.084       .  S
C134       C1451   1.500       .  S
C134        C135   1.415       .  A
C135        H138   1.083       .  S
C139       C2220   1.487       .  S
C139        C140   1.406       .  A
C139        C144   1.405       .  A
C140        C141   1.405   1_556  A
C140        H145   1.084       .  S
C141       C1436   1.490       .  S
C141        C142   1.404       .  A
C142        C143   1.411   1_554  A
C142        H146   1.082       .  S
C143       C1632   1.507       .  S
C143        C144   1.411       .  A
C144        H147   1.081       .  S
C148       C1283   1.494       .  S
C148        C149   1.418       .  A
C148        C153   1.412   1_456  A
C149       C1255   1.487       .  S
C149        C150   1.418   1_455  A
C150       C1395   1.502       .  S
C150        C151   1.419       .  A
C151       C1367   1.478       .  S
C151        C152   1.415   1_556  A
C152       C1339   1.494       .  S
C152        C153   1.408       .  A
C153       C1311   1.484       .  S
C154       C2248   1.494       .  S
C154        C155   1.408       .  A
C154        C159   1.412   1_556  A
C155        C156   1.408       .  A
C155        H160   1.081       .  S
C156       C1296   1.504       .  S
C156        C157   1.406   1_556  A
C157        C158   1.401       .  A
C157        H161   1.082       .  S
C158       C1227   1.494       .  S
C158        C159   1.411       .  A
C159        H162   1.083       .  S
C163       C2403   1.476       .  S
C163        C164   1.404       .  A
C163        C168   1.400       .  A
C164        C165   1.404       .  A
C164        H169   1.084       .  S
C165       C1199   1.480       .  S
C165        C166   1.403       .  A
C166        C167   1.403       .  A
C166        H170   1.084       .  S
C167       C1268   1.476       .  S
C167        C168   1.399       .  A
C168        H171   1.084       .  S
C172       C1828   1.479       .  S
C172        C173   1.410       .  A
C172        C177   1.401       .  A
C173        C174   1.413   1_655  A
C173        H178   1.083       .  S
C174       C1171   1.492       .  S
C174        C175   1.404       .  A
C175        C176   1.398   1_455  A
C175        H179   1.084       .  S
C176       C1324   1.475       .  S
C176        C177   1.398       .  A
C177        H180   1.084       .  S
C181       C1143   1.489       .  S
C181        C182   1.404       .  A
C181        C186   1.406       .  A
C182        C183   1.404       .  A
C182        H187   1.083       .  S
C183       C1352   1.493       .  S
C183        C184   1.407       .  A
C184        C185   1.409       .  A
C184        H188   1.083       .  S
C185       C1912   1.494       .  S
C185        C186   1.410       .  A
C186        H189   1.084       .  S
C190       C1115   1.492       .  S
C190        C191   1.411   1_455  A
C190        C195   1.407       .  A
C191        C192   1.410       .  A
C191        H196   1.083       .  S
C192       C1996   1.489       .  S
C192        C193   1.403       .  A
C193        C194   1.407       .  A
C193        H197   1.083       .  S
C194       C1408   1.500       .  S
C194        C195   1.409   1_655  A
C195        H198   1.083       .  S
C199       C1087   1.474       .  S
C199        C200   1.404       .  A
C199        C204   1.399       .  A
C200        C201   1.403   1_554  A
C200        H205   1.083       .  S
C201       C2080   1.472       .  S
C201        C202   1.401       .  A
C202        C203   1.396   1_556  A
C202        H206   1.084       .  S
C203       C1380   1.464       .  S
C203        C204   1.396       .  A
C204        H207   1.085       .  S
C208       C1059   1.489       .  S
C208        C209   1.413       .  A
C208        C213   1.417       .  A
C209       C1031   1.491       .  S
C209        C210   1.415       .  A
C210       C1003   1.498       .  S
C210        C211   1.419       .  A
C211        C988   1.489       .  S
C211        C212   1.421       .  A
C212        C919   1.501       .  S
C212        C213   1.418       .  A
C213        C947   1.490       .  S
C214        C904   1.495       .  S
C214        C215   1.405       .  A
C214        C219   1.418       .  A
C215        C216   1.396       .  A
C215        H220   1.083       .  S
C216       C1072   1.486       .  S
C216        C217   1.397       .  A
C217        C218   1.408       .  A
C217        H221   1.083       .  S
C218       C2136   1.510       .  S
C218        C219   1.419       .  A
C219        H222   1.081       .  S
C223        C876   1.494       .  S
C223        C224   1.411       .  A
C223        C228   1.405       .  A
C224        C225   1.411       .  A
C224        H229   1.083       .  S
C225       C2319   1.494       .  S
C225        C226   1.406       .  A
C226        C227   1.407       .  A
C226        H230   1.081       .  S
C227        C932   1.504       .  S
C227        C228   1.408       .  A
C228        H231   1.083       .  S
C232        C835   1.491       .  S
C232        C233   1.407       .  A
C232        C237   1.407       .  A
C233        C234   1.408       .  A
C233        H238   1.081       .  S
C234       C1016   1.504       .  S
C234        C235   1.409       .  A
C235        C236   1.405       .  A
C235        H239   1.082       .  S
C236       C1884   1.492       .  S
C236        C237   1.406       .  A
C237        H240   1.083       .  S
C241        C807   1.485       .  S
C241        C242   1.407       .  A
C241        C246   1.405       .  A
C242        C243   1.405       .  A
C242        H247   1.083       .  S
C243       C1968   1.478       .  S
C243        C244   1.402       .  A
C244        C245   1.399       .  A
C244        H248   1.084       .  S
C245        C975   1.475       .  S
C245        C246   1.399       .  A
C246        H249   1.084       .  S
C250        C792   1.482       .  S
C250        C251   1.409       .  A
C250        C255   1.404       .  A
C251        C252   1.407       .  A
C251        H256   1.083       .  S
C252       C2388   1.482       .  S
C252        C253   1.400       .  A
C253        C254   1.401       .  A
C253        H257   1.084       .  S
C254        C960   1.480       .  S
C254        C255   1.402       .  A
C255        H258   1.084       .  S
C259        C751   1.478       .  S
C259        C260   1.405       .  A
C259        C264   1.401       .  A
C260        C261   1.404       .  A
C260        H265   1.084       .  S
C261       C2164   1.475       .  S
C261        C262   1.403       .  A
C262        C263   1.401       .  A
C262        H266   1.084       .  S
C263       C1044   1.473       .  S
C263        C264   1.399       .  A
C264        H267   1.084       .  S
C268        C583   1.490       .  S
C268        C269   1.417       .  A
C268        C273   1.417   1_465  A
C269        C723   1.496       .  S
C269        C270   1.418   1_565  A
C270        C695   1.491       .  S
C270        C271   1.415       .  A
C271        C667   1.483       .  S
C271        C272   1.412   1_455  A
C272        C639   1.492       .  S
C272        C273   1.411       .  A
C273        C624   1.485       .  S
C274       C2024   1.492       .  S
C274        C275   1.409   1_655  A
C274        C279   1.408       .  A
C275        C276   1.404       .  A
C275        H280   1.083       .  S
C276        C568   1.474       .  S
C276        C277   1.398       .  A
C277        C278   1.401       .  A
C277        H281   1.084       .  S
C278        C680   1.483       .  S
C278        C279   1.404   1_455  A
C279        H282   1.083       .  S
C283        C527   1.494       .  S
C283        C284   1.405       .  A
C283        C288   1.410   1_545  A
C284        C285   1.401   1_545  A
C284        H289   1.084       .  S
C285        C708   1.481       .  S
C285        C286   1.400       .  A
C286        C287   1.406       .  A
C286        H290   1.084       .  S
C287       C2276   1.486       .  S
C287        C288   1.409       .  A
C288        H291   1.083       .  S
C292       C2360   1.482       .  S
C292        C293   1.403       .  A
C292        C297   1.406       .  A
C293        C294   1.407       .  A
C293        H298   1.083       .  S
C294        C736   1.498       .  S
C294        C295   1.407       .  A
C295        C296   1.405       .  A
C295        H299   1.082       .  S
C296        C499   1.497       .  S
C296        C297   1.409       .  A
C297        H300   1.083       .  S
C301       C2179   1.488       .  S
C301        C302   1.406       .  A
C301        C306   1.407       .  A
C302        C303   1.406       .  A
C302        H307   1.084       .  S
C303        C652   1.487       .  S
C303        C304   1.404       .  A
C304        C305   1.404       .  A
C304        H308   1.084       .  S
C305        C471   1.480       .  S
C305        C306   1.405       .  A
C306        H309   1.084       .  S
C310       C1772   1.483       .  S
C310        C311   1.405   1_565  A
C310        C315   1.404       .  A
C311        C312   1.409       .  A
C311        H316   1.083       .  S
C312        C456   1.495       .  S
C312        C313   1.404       .  A
C313        C314   1.401       .  A
C313        H317   1.083       .  S
C314        C611   1.485       .  S
C314        C315   1.401   1_545  A
C315        H318   1.083       .  S
C319       C1856   1.488       .  S
C319        C320   1.404       .  A
C319        C324   1.412   1_655  A
C320        C321   1.399   1_655  A
C320        H325   1.084       .  S
C321        C596   1.474       .  S
C321        C322   1.398       .  A
C322        C323   1.403       .  A
C322        H326   1.084       .  S
C323        C415   1.489       .  S
C323        C324   1.412       .  A
C324        H327   1.083       .  S
O328        C336   1.313       .  A
O328       Co348   2.143       .  S
O329        C337   1.267       .  A
O329       Co349   2.002       .  S
O330        C338   1.260       .  A
O330       Co350   1.985       .  S
O331        C339   1.287       .  A
O331       Co351   1.961       .  S
O332        C338   1.258       .  A
O332       Co349   1.988       .  S
O333        C339   1.297       .  A
O333       Co348   2.011       .  S
O334        C337   1.263       .  A
O334       Co351   1.983       .  S
O335        C336   1.266       .  A
O335       Co350   1.859       .  S
C336        C540   1.481       .  S
C337        C779   1.493       .  S
C338        C555   1.491       .  S
C339        C891   1.492       .  S
O340        C353   1.280       .  A
O340       Co348   2.048       .  S
O341        C354   1.270       .  A
O341       Co349   1.977       .  S
O342        C355   1.268       .  A
O342       Co350   1.974       .  S
O343        C356   1.277       .  A
O343       Co351   2.026       .  S
O344        C356   1.267       .  A
O344       Co349   1.972       .  S
O345        C355   1.296       .  A
O345       Co348   2.059       .  S
O346        C353   1.252       .  A
O346       Co351   1.975       .  S
O347        C354   1.278       .  A
O347       Co350   2.021       .  S
Co348       O352   2.061       .  S
Co349       O352   2.039       .  S
Co350       O352   1.893       .  S
Co351       O352   1.998       .  S
C353       C1492   1.488       .  S
C354       C1128   1.494       .  S
C355       C1520   1.489       .  S
C356       C1212   1.493       .  S
O357        C365   1.253       .  A
O357       Co377   1.949       .  S
O358        C366   1.259       .  A
O358       Co378   1.963       .  S
O359        C367   1.270       .  A
O359       Co379   2.015       .  S
O360        C368   1.274       .  A
O360       Co380   2.045       .  S
O361        C367   1.259       .  A
O361       Co378   1.960       .  S
O362        C368   1.257       .  A
O362       Co377   1.956       .  S
O363        C366   1.269       .  A
O363       Co380   2.028       .  S
O364        C365   1.268       .  A
O364       Co379   2.033       .  S
C365        C443   1.466       .  S
C366       C1156   1.489       .  S
C367       C1100   1.480       .  S
C368        C484   1.495       .  S
O369        C382   1.268       .  A
O369       Co377   2.017       .  S
O370        C383   1.271       .  A
O370       Co378   2.033       .  S
O371        C384   1.261       .  A
O371       Co379   1.961       .  S
O372        C385   1.261       .  A
O372       Co380   1.961       .  S
O373        C385   1.271       .  A
O373       Co378   2.030       .  S
O374        C384   1.273       .  A
O374       Co377   2.040       .  S
O375        C382   1.259       .  A
O375       Co380   1.966       .  S
O376        C383   1.261       .  A
O376       Co379   1.968       .  S
Co377       O381   2.098       .  S
Co378       O381   2.112       .  S
Co379       O381   2.115       .  S
Co380       O381   2.115       .  S
C382        C764   1.488       .  S
C383       C1535   1.500       .  S
C384       C1576   1.492       .  S
C385        C848   1.488       .  S
O386        C394   1.280       .  A
O386       Co406   1.884       .  S
O387        C395   1.259       .  A
O387       Co407   1.981       .  S
O388        C396   1.265       .  A
O388       Co408   1.990       .  S
O389        C397   1.278       .  A
O389       Co409   2.012       .  S
O390        C396   1.271       .  A
O390       Co407   1.993       .  S
O391        C397   1.280       .  A
O391       Co406   1.989       .  S
O392        C395   1.263       .  A
O392       Co409   2.012       .  S
O393        C394   1.310       .  A
O393       Co408   2.125       .  S
C394        C820   1.478       .  S
C395       C1184   1.486       .  S
C396        C863   1.478       .  S
C397       C1240   1.481       .  S
O398        C411   1.274       .  A
O398       Co406   2.003       .  S
O399        C412   1.259       .  A
O399       Co407   1.986       .  S
O400        C413   1.249       .  A
O400       Co408   1.972       .  S
O401        C414   1.279       .  A
O401       Co409   1.977       .  S
O402        C414   1.285       .  A
O402       Co407   2.032       .  S
O403        C413   1.256       .  A
O403       Co406   2.054       .  S
O404        C411   1.279       .  A
O404       Co409   2.007       .  S
O405        C412   1.267       .  A
O405       Co408   2.001       .  S
Co406       O410   1.978       .  S
Co407       O410   2.071       .  S
Co408       O410   2.118       .  S
Co409       O410   2.079       .  S
C411       C1423   1.494       .  S
C412        C512   1.488       .  S
C413       C1464   1.493       .  S
C414        C428   1.475       .  S
C415        C416   1.413       .  A
C415        C420   1.404       .  A
C416        C417   1.405       .  A
C416        N421   1.432       .  S
C417        C418   1.400       .  A
C417        H422   1.084       .  S
C418        C423   1.484       .  S
C418        C419   1.413       .  A
C419        C420   1.409       .  A
C419        N424   1.438       .  S
C420        H425   1.084       .  S
N421        H441   1.046       .  S
N421        H442   1.045       .  S
C423        C426   1.403       .  A
C423        C430   1.410       .  A
N424        H439   1.046       .  S
N424        H440   1.045       .  S
C426        C427   1.406       .  A
C426        H431   1.084       .  S
C427        C428   1.412       .  A
C427        N432   1.435       .  S
C428        C429   1.405       .  A
C429        C430   1.401       .  A
C429        H433   1.084       .  S
C430        N434   1.432       .  S
N432        H435   1.045       .  S
N432        H436   1.045       .  S
N434        H437   1.045       .  S
N434        H438   1.045       .  S
C443        C444   1.411       .  A
C443        C448   1.401       .  A
C444        C445   1.405       .  A
C444        N449   1.438       .  S
C445        C446   1.408       .  A
C445        H450   1.083       .  S
C446        C451   1.487       .  S
C446        C447   1.413       .  A
C447        C448   1.396       .  A
C447        N452   1.440       .  S
C448        H453   1.085       .  S
N449        H469   1.044       .  S
N449        H470   1.046       .  S
C451        C454   1.401       .  A
C451        C458   1.411       .  A
N452        H467   1.046       .  S
N452        H468   1.046       .  S
C454        C455   1.400       .  A
C454        H459   1.084       .  S
C455        C456   1.419       .  A
C455        N460   1.439       .  S
C456        C457   1.408       .  A
C457        C458   1.407       .  A
C457        H461   1.083       .  S
C458        N462   1.438       .  S
N460        H463   1.045       .  S
N460        H464   1.046       .  S
N462        H465   1.045       .  S
N462        H466   1.046       .  S
C471        C472   1.409       .  A
C471        C476   1.401       .  A
C472        C473   1.408       .  A
C472        N477   1.432       .  S
C473        C474   1.403       .  A
C473        H478   1.084       .  S
C474        C479   1.486       .  S
C474        C475   1.416       .  A
C475        C476   1.400       .  A
C475        N480   1.433       .  S
C476        H481   1.084       .  S
N477        H497   1.046       .  S
N477        H498   1.045       .  S
C479        C482   1.400       .  A
C479        C486   1.408       .  A
N480        H495   1.044       .  S
N480        H496   1.046       .  S
C482        C483   1.406       .  A
C482        H487   1.084       .  S
C483        C484   1.419       .  A
C483        N488   1.438       .  S
C484        C485   1.410       .  A
C485        C486   1.410       .  A
C485        H489   1.083       .  S
C486        N490   1.437       .  S
N488        H491   1.046       .  S
N488        H492   1.045       .  S
N490        H493   1.045       .  S
N490        H494   1.044       .  S
C499        C500   1.414       .  A
C499        C504   1.410       .  A
C500        C501   1.409       .  A
C500        N505   1.438       .  S
C501        C502   1.405       .  A
C501        H506   1.084       .  S
C502        C507   1.490       .  S
C502        C503   1.409       .  A
C503        C504   1.408       .  A
C503        N508   1.438       .  S
C504        H509   1.084       .  S
N505        H525   1.046       .  S
N505        H526   1.045       .  S
C507        C510   1.399       .  A
C507        C514   1.421       .  A
N508        H523   1.045       .  S
N508        H524   1.044       .  S
C510        C511   1.399       .  A
C510        H515   1.084       .  S
C511        C512   1.415       .  A
C511        N516   1.434       .  S
C512        C513   1.406       .  A
C513        C514   1.411       .  A
C513        H517   1.084       .  S
C514        N518   1.438       .  S
N516        H519   1.046       .  S
N516        H520   1.045       .  S
N518        H521   1.045       .  S
N518        H522   1.043       .  S
C527        C528   1.418       .  A
C527        C532   1.407       .  A
C528        C529   1.406       .  A
C528        N533   1.438       .  S
C529        C530   1.400       .  A
C529        H534   1.084       .  S
C530        C535   1.482       .  S
C530        C531   1.407       .  A
C531        C532   1.407       .  A
C531        N536   1.432       .  S
C532        H537   1.084       .  S
N533        H553   1.045       .  S
N533        H554   1.046       .  S
C535        C538   1.394       .  A
C535        C542   1.411       .  A
N536        H551   1.046       .  S
N536        H552   1.045       .  S
C538        C539   1.397       .  A
C538        H543   1.085       .  S
C539        C540   1.416       .  A
C539        N544   1.431       .  S
C540        C541   1.404       .  A
C541        C542   1.414       .  A
C541        H545   1.083       .  S
C542        N546   1.431       .  S
N544        H547   1.045       .  S
N544        H548   1.045       .  S
N546        H549   1.045       .  S
N546        H550   1.046       .  S
C555        C556   1.423       .  A
C555        C560   1.409       .  A
C556        C557   1.397       .  A
C556        N561   1.433       .  S
C557        C558   1.399       .  A
C557        H562   1.084       .  S
C558        C563   1.485       .  S
C558        C559   1.410       .  A
C559        C560   1.407       .  A
C559        N564   1.438       .  S
C560        H565   1.083       .  S
N561        H581   1.045       .  S
N561        H582   1.044       .  S
C563        C566   1.405       .  A
C563        C570   1.411       .  A
N564        H579   1.046       .  S
N564        H580   1.046       .  S
C566        C567   1.405       .  A
C566        H571   1.084       .  S
C567        C568   1.406       .  A
C567        N572   1.432       .  S
C568        C569   1.400       .  A
C569        C570   1.403       .  A
C569        H573   1.084       .  S
C570        N574   1.432       .  S
N572        H575   1.046       .  S
N572        H576   1.046       .  S
N574        H577   1.045       .  S
N574        H578   1.046       .  S
C583        C584   1.411       .  A
C583        C588   1.404   1_455  A
C584        C585   1.405       .  A
C584        N589   1.438       .  S
C585        C586   1.403       .  A
C585        H590   1.084       .  S
C586        C591   1.477       .  S
C586        C587   1.407   1_455  A
C587        C588   1.400       .  A
C587        N592   1.438       .  S
C588        H593   1.083       .  S
N589        H609   1.044       .  S
N589        H610   1.046       .  S
C591        C594   1.403       .  A
C591        C598   1.408       .  A
N592        H607   1.046       .  S
N592        H608   1.046       .  S
C594        C595   1.405       .  A
C594        H599   1.084       .  S
C595        C596   1.409       .  A
C595        N600   1.438       .  S
C596        C597   1.402       .  A
C597        C598   1.404       .  A
C597        H601   1.084       .  S
C598        N602   1.438       .  S
N600        H603   1.046       .  S
N600        H604   1.045   1_455  S
N602        H605   1.045       .  S
N602        H606   1.046   1_455  S
C611        C612   1.414   1_545  A
C611        C616   1.407       .  A
C612        C613   1.407       .  A
C612        N617   1.437       .  S
C613        C614   1.401   1_565  A
C613        H618   1.084       .  S
C614        C619   1.471       .  S
C614        C615   1.405       .  A
C615        C616   1.400       .  A
C615        N620   1.439       .  S
C616        H621   1.083       .  S
N617        H637   1.045       .  S
N617        H638   1.046       .  S
C619        C622   1.400       .  A
C619        C626   1.408   1_545  A
N620        H635   1.046       .  S
N620        H636   1.045       .  S
C622        C623   1.401       .  A
C622        H627   1.084       .  S
C623        C624   1.407       .  A
C623        N628   1.431   1_655  S
C624        C625   1.403       .  A
C625        C626   1.402   1_545  A
C625        H629   1.083   1_545  S
C626        N630   1.438       .  S
N628        H631   1.045       .  S
N628        H632   1.046       .  S
N630        H633   1.045       .  S
N630        H634   1.045   1_565  S
C639        C640   1.417       .  A
C639        C644   1.401       .  A
C640        C641   1.405       .  A
C640        N645   1.438       .  S
C641        C642   1.403       .  A
C641        H646   1.084       .  S
C642        C647   1.482       .  S
C642        C643   1.416       .  A
C643        C644   1.400       .  A
C643        N648   1.439       .  S
C644        H649   1.084       .  S
N645        H665   1.042   1_655  S
N645        H666   1.046       .  S
C647        C650   1.402       .  A
C647        C654   1.408       .  A
N648        H663   1.045       .  S
N648        H664   1.043       .  S
C650        C651   1.408       .  A
C650        H655   1.084       .  S
C651        C652   1.414       .  A
C651        N656   1.438       .  S
C652        C653   1.405       .  A
C653        C654   1.406       .  A
C653        H657   1.084       .  S
C654        N658   1.438       .  S
N656        H659   1.046       .  S
N656        H660   1.046       .  S
N658        H661   1.046       .  S
N658        H662   1.045       .  S
C667        C668   1.417       .  A
C667        C672   1.402   1_455  A
C668        C669   1.400       .  A
C668        N673   1.438       .  S
C669        C670   1.400       .  A
C669        H674   1.084       .  S
C670        C675   1.475       .  S
C670        C671   1.407   1_455  A
C671        C672   1.403       .  A
C671        N676   1.437       .  S
C672        H677   1.083       .  S
N673        H693   1.043       .  S
N673        H694   1.046       .  S
C675        C678   1.400   1_455  A
C675        C682   1.406       .  A
N676        H691   1.046       .  S
N676        H692   1.046       .  S
C678        C679   1.407       .  A
C678        H683   1.084       .  S
C679        C680   1.414   1_655  A
C679        N684   1.437       .  S
C680        C681   1.404       .  A
C681        C682   1.402       .  A
C681        H685   1.084       .  S
C682        N686   1.436       .  S
N684        H687   1.046       .  S
N684        H688   1.046       .  S
N686        H689   1.046       .  S
N686        H690   1.045       .  S
C695        C696   1.411   1_545  A
C695        C700   1.402       .  A
C696        C697   1.406       .  A
C696        N701   1.436       .  S
C697        C698   1.401   1_565  A
C697        H702   1.084       .  S
C698        C703   1.478   1_545  S
C698        C699   1.408       .  A
C699        C700   1.404       .  A
C699        N704   1.438       .  S
C700        H705   1.081       .  S
N701        H721   1.046       .  S
N701        H722   1.044   1_455  S
C703        C706   1.403       .  A
C703        C710   1.407   1_565  A
N704        H719   1.045       .  S
N704        H720   1.046       .  S
C706        C707   1.409       .  A
C706        H711   1.084       .  S
C707        C708   1.412       .  A
C707        N712   1.437       .  S
C708        C709   1.403   1_565  A
C709        C710   1.403       .  A
C709        H713   1.084       .  S
C710        N714   1.436       .  S
N712        H715   1.046       .  S
N712        H716   1.045       .  S
N714        H717   1.046       .  S
N714        H718   1.044       .  S
C723        C724   1.411       .  A
C723        C728   1.402       .  A
C724        C725   1.406       .  A
C724        N729   1.437       .  S
C725        C726   1.407       .  A
C725        H730   1.083       .  S
C726        C731   1.496       .  S
C726        C727   1.414       .  A
C727        C728   1.402       .  A
C727        N732   1.438       .  S
C728        H733   1.082       .  S
N729        H749   1.044       .  S
N729        H750   1.045       .  S
C731        C734   1.404       .  A
C731        C738   1.414       .  A
N732        H747   1.046       .  S
N732        H748   1.046       .  S
C734        C735   1.403       .  A
C734        H739   1.083       .  S
C735        C736   1.416       .  A
C735        N740   1.438       .  S
C736        C737   1.408       .  A
C737        C738   1.408       .  A
C737        H741   1.082       .  S
C738        N742   1.438       .  S
N740        H743   1.046       .  S
N740        H744   1.045       .  S
N742        H745   1.045       .  S
N742        H746   1.046       .  S
C751        C752   1.410       .  A
C751        C756   1.400       .  A
C752        C753   1.407       .  A
C752        N757   1.437       .  S
C753        C754   1.405       .  A
C753        H758   1.083       .  S
C754        C759   1.486       .  S
C754        C755   1.414       .  A
C755        C756   1.403       .  A
C755        N760   1.439       .  S
C756        H761   1.084       .  S
N757        H777   1.046       .  S
N757        H778   1.046       .  S
C759        C762   1.403       .  A
C759        C766   1.409       .  A
N760        H775   1.046       .  S
N760        H776   1.046       .  S
C762        C763   1.407       .  A
C762        H767   1.084       .  S
C763        C764   1.415       .  A
C763        N768   1.437       .  S
C764        C765   1.408       .  A
C765        C766   1.403       .  A
C765        H769   1.084       .  S
C766        N770   1.438       .  S
N768        H771   1.046       .  S
N768        H772   1.046       .  S
N770        H773   1.046       .  S
N770        H774   1.043       .  S
C779        C780   1.413       .  A
C779        C784   1.409       .  A
C780        C781   1.407       .  A
C780        N785   1.432       .  S
C781        C782   1.405       .  A
C781        H786   1.084       .  S
C782        C787   1.489       .  S
C782        C783   1.409       .  A
C783        C784   1.405       .  A
C783        N788   1.438       .  S
C784        H789   1.083       .  S
N785        H805   1.045       .  S
N785        H806   1.045       .  S
C787        C790   1.405       .  A
C787        C794   1.410       .  A
N788        H803   1.045       .  S
N788        H804   1.046       .  S
C790        C791   1.409       .  A
C790        H795   1.083       .  S
C791        C792   1.411       .  A
C791        N796   1.437       .  S
C792        C793   1.402       .  A
C793        C794   1.403       .  A
C793        H797   1.084       .  S
C794        N798   1.433       .  S
N796        H799   1.046       .  S
N796        H800   1.046       .  S
N798        H801   1.045       .  S
N798        H802   1.046       .  S
C807        C808   1.410       .  A
C807        C812   1.407       .  A
C808        C809   1.401       .  A
C808        N813   1.432       .  S
C809        C810   1.401       .  A
C809        H814   1.084       .  S
C810        C815   1.476       .  S
C810        C811   1.406       .  A
C811        C812   1.406       .  A
C811        N816   1.437       .  S
C812        H817   1.084       .  S
N813        H833   1.046       .  S
N813        H834   1.046       .  S
C815        C818   1.401       .  A
C815        C822   1.407       .  A
N816        H831   1.046       .  S
N816        H832   1.046       .  S
C818        C819   1.406       .  A
C818        H823   1.084       .  S
C819        C820   1.414       .  A
C819        N824   1.432       .  S
C820        C821   1.404       .  A
C821        C822   1.400       .  A
C821        H825   1.083       .  S
C822        N826   1.438       .  S
N824        H827   1.046       .  S
N824        H828   1.046       .  S
N826        H829   1.045       .  S
N826        H830   1.046       .  S
C835        C836   1.416       .  A
C835        C840   1.404       .  A
C836        C837   1.406       .  A
C836        N841   1.438       .  S
C837        C838   1.401       .  A
C837        H842   1.084       .  S
C838        C843   1.488       .  S
C838        C839   1.411       .  A
C839        C840   1.408       .  A
C839        N844   1.435       .  S
C840        H845   1.083       .  S
N841        H861   1.045       .  S
N841        H862   1.046       .  S
C843        C846   1.404       .  A
C843        C850   1.410       .  A
N844        H859   1.046       .  S
N844        H860   1.044       .  S
C846        C847   1.411       .  A
C846        H851   1.083       .  S
C847        C848   1.415       .  A
C847        N852   1.437       .  S
C848        C849   1.407       .  A
C849        C850   1.404       .  A
C849        H853   1.083       .  S
C850        N854   1.439       .  S
N852        H855   1.045       .  S
N852        H856   1.046       .  S
N854        H857   1.045       .  S
N854        H858   1.046       .  S
C863        C864   1.415       .  A
C863        C868   1.407       .  A
C864        C865   1.408       .  A
C864        N869   1.437       .  S
C865        C866   1.406       .  A
C865        H870   1.084       .  S
C866        C871   1.494       .  S
C866        C867   1.413       .  A
C867        C868   1.404       .  A
C867        N872   1.433       .  S
C868        H873   1.084       .  S
N869        H889   1.045       .  S
N869        H890   1.046       .  S
C871        C874   1.407       .  A
C871        C878   1.409       .  A
N872        H887   1.045       .  S
N872        H888   1.046       .  S
C874        C875   1.412       .  A
C874        H879   1.084       .  S
C875        C876   1.412       .  A
C875        N880   1.437       .  S
C876        C877   1.408       .  A
C877        C878   1.409       .  A
C877        H881   1.084       .  S
C878        N882   1.437       .  S
N880        H883   1.046       .  S
N880        H884   1.046       .  S
N882        H885   1.046       .  S
N882        H886   1.046       .  S
C891        C892   1.420       .  A
C891        C896   1.408       .  A
C892        C893   1.406       .  A
C892        N897   1.432       .  S
C893        C894   1.402       .  A
C893        H898   1.084       .  S
C894        C899   1.487       .  S
C894        C895   1.409       .  A
C895        C896   1.406       .  A
C895        N900   1.438       .  S
C896        H901   1.084       .  S
N897        H917   1.045       .  S
N897        H918   1.046       .  S
C899        C902   1.400       .  A
C899        C906   1.411       .  A
N900        H915   1.046       .  S
N900        H916   1.045       .  S
C902        C903   1.408       .  A
C902        H907   1.084       .  S
C903        C904   1.417       .  A
C903        N908   1.438       .  S
C904        C905   1.405       .  A
C905        C906   1.410       .  A
C905        H909   1.083       .  S
C906        N910   1.438       .  S
N908        H911   1.046       .  S
N908        H912   1.045       .  S
N910        H913   1.046       .  S
N910        H914   1.045       .  S
C919        C920   1.410       .  A
C919        C924   1.405       .  A
C920        C921   1.401       .  A
C920        N925   1.430       .  S
C921        C922   1.406       .  A
C921        H926   1.083       .  S
C922        C927   1.501       .  S
C922        C923   1.417       .  A
C923        C924   1.408       .  A
C923        N928   1.438       .  S
C924        H929   1.083       .  S
N925        H945   1.045       .  S
N925        H946   1.046       .  S
C927        C930   1.405       .  A
C927        C934   1.416       .  A
N928        H943   1.046       .  S
N928        H944   1.045       .  S
C930        C931   1.405       .  A
C930        H935   1.083       .  S
C931        C932   1.417       .  A
C931        N936   1.432       .  S
C932        C933   1.408       .  A
C933        C934   1.406       .  A
C933        H937   1.082       .  S
C934        N938   1.438       .  S
N936        H939   1.046       .  S
N936        H940   1.046       .  S
N938        H941   1.046       .  S
N938        H942   1.045       .  S
C947        C948   1.420       .  A
C947        C952   1.402       .  A
C948        C949   1.398       .  A
C948        N953   1.440       .  S
C949        C950   1.399       .  A
C949        H954   1.084       .  S
C950        C955   1.477       .  S
C950        C951   1.417       .  A
C951        C952   1.400       .  A
C951        N956   1.439       .  S
C952        H957   1.084       .  S
N953        H973   1.043       .  S
N953        H974   1.045       .  S
C955        C958   1.402       .  A
C955        C962   1.409       .  A
N956        H971   1.046       .  S
N956        H972   1.043       .  S
C958        C959   1.406       .  A
C958        H963   1.084       .  S
C959        C960   1.412       .  A
C959        N964   1.438       .  S
C960        C961   1.404       .  A
C961        C962   1.403       .  A
C961        H965   1.084       .  S
C962        N966   1.439       .  S
N964        H967   1.046       .  S
N964        H968   1.045       .  S
N966        H969   1.045       .  S
N966        H970   1.044       .  S
C975        C976   1.409       .  A
C975        C980   1.402       .  A
C976        C977   1.404       .  A
C976        N981   1.438       .  S
C977        C978   1.403       .  A
C977        H982   1.084       .  S
C978        C983   1.481       .  S
C978        C979   1.411       .  A
C979        C980   1.405       .  A
C979        N984   1.438       .  S
C980        H985   1.084       .  S
N981       H1001   1.045       .  S
N981       H1002   1.046       .  S
C983        C986   1.403       .  A
C983        C990   1.409       .  A
N984        H999   1.046       .  S
N984       H1000   1.045       .  S
C986        C987   1.401       .  A
C986        H991   1.084       .  S
C987        C988   1.418       .  A
C987        N992   1.439       .  S
C988        C989   1.403       .  A
C989        C990   1.402       .  A
C989        H993   1.083       .  S
C990        N994   1.438       .  S
N992        H995   1.045       .  S
N992        H996   1.043       .  S
N994        H997   1.045       .  S
N994        H998   1.046       .  S
C1003      C1004   1.410       .  A
C1003      C1008   1.403       .  A
C1004      C1005   1.403       .  A
C1004      N1009   1.436       .  S
C1005      C1006   1.407       .  A
C1005      H1010   1.083       .  S
C1006      C1011   1.500       .  S
C1006      C1007   1.417       .  A
C1007      C1008   1.406       .  A
C1007      N1012   1.438       .  S
C1008      H1013   1.083       .  S
N1009      H1029   1.045       .  S
N1009      H1030   1.046       .  S
C1011      C1014   1.406       .  A
C1011      C1018   1.415       .  A
N1012      H1027   1.046       .  S
N1012      H1028   1.045       .  S
C1014      C1015   1.408       .  A
C1014      H1019   1.082       .  S
C1015      C1016   1.419       .  A
C1015      N1020   1.438       .  S
C1016      C1017   1.408       .  A
C1017      C1018   1.403       .  A
C1017      H1021   1.082       .  S
C1018      N1022   1.439       .  S
N1020      H1023   1.046       .  S
N1020      H1024   1.046       .  S
N1022      H1025   1.045       .  S
N1022      H1026   1.046       .  S
C1031      C1032   1.420       .  A
C1031      C1036   1.403       .  A
C1032      C1033   1.400       .  A
C1032      N1037   1.437       .  S
C1033      C1034   1.398       .  A
C1033      H1038   1.084       .  S
C1034      C1039   1.475       .  S
C1034      C1035   1.407       .  A
C1035      C1036   1.403       .  A
C1035      N1040   1.438       .  S
C1036      H1041   1.084       .  S
N1037      H1057   1.042       .  S
N1037      H1058   1.045       .  S
C1039      C1042   1.401       .  A
C1039      C1046   1.409       .  A
N1040      H1055   1.046       .  S
N1040      H1056   1.045       .  S
C1042      C1043   1.405       .  A
C1042      H1047   1.084       .  S
C1043      C1044   1.410       .  A
C1043      N1048   1.438       .  S
C1044      C1045   1.401       .  A
C1045      C1046   1.404       .  A
C1045      H1049   1.084       .  S
C1046      N1050   1.438       .  S
N1048      H1051   1.046       .  S
N1048      H1052   1.046       .  S
N1050      H1053   1.046       .  S
N1050      H1054   1.045       .  S
C1059      C1060   1.419       .  A
C1059      C1064   1.403       .  A
C1060      C1061   1.399       .  A
C1060      N1065   1.439       .  S
C1061      C1062   1.400       .  A
C1061      H1066   1.084       .  S
C1062      C1067   1.473       .  S
C1062      C1063   1.408       .  A
C1063      C1064   1.400       .  A
C1063      N1068   1.438       .  S
C1064      H1069   1.083       .  S
N1065      H1085   1.042       .  S
N1065      H1086   1.045       .  S
C1067      C1070   1.402       .  A
C1067      C1074   1.403       .  A
N1068      H1083   1.046       .  S
N1068      H1084   1.044       .  S
C1070      C1071   1.408       .  A
C1070      H1075   1.084       .  S
C1071      C1072   1.415       .  A
C1071      N1076   1.437       .  S
C1072      C1073   1.406       .  A
C1073      C1074   1.397       .  A
C1073      H1077   1.084       .  S
C1074      N1078   1.433       .  S
N1076      H1079   1.046       .  S
N1076      H1080   1.046       .  S
N1078      H1081   1.045       .  S
N1078      H1082   1.046       .  S
C1087      C1088   1.412       .  A
C1087      C1092   1.401       .  A
C1088      C1089   1.406       .  A
C1088      N1093   1.438       .  S
C1089      C1090   1.402       .  A
C1089      H1094   1.084       .  S
C1090      C1095   1.474       .  S
C1090      C1091   1.411       .  A
C1091      C1092   1.398       .  A
C1091      N1096   1.439       .  S
C1092      H1097   1.084       .  S
N1093      H1113   1.044       .  S
N1093      H1114   1.046       .  S
C1095      C1098   1.402       .  A
C1095      C1102   1.404       .  A
N1096      H1111   1.045       .  S
N1096      H1112   1.046       .  S
C1098      C1099   1.405       .  A
C1098      H1103   1.084       .  S
C1099      C1100   1.415       .  A
C1099      N1104   1.438       .  S
C1100      C1101   1.406       .  A
C1101      C1102   1.397       .  A
C1101      H1105   1.084       .  S
C1102      N1106   1.432       .  S
N1104      H1107   1.046       .  S
N1104      H1108   1.046       .  S
N1106      H1109   1.045       .  S
N1106      H1110   1.045       .  S
C1115      C1116   1.413       .  A
C1115      C1120   1.405       .  A
C1116      C1117   1.412       .  A
C1116      N1121   1.438       .  S
C1117      C1118   1.407       .  A
C1117      H1122   1.084       .  S
C1118      C1123   1.496       .  S
C1118      C1119   1.411       .  A
C1119      C1120   1.410       .  A
C1119      N1124   1.437       .  S
C1120      H1125   1.084       .  S
N1121      H1141   1.046       .  S
N1121      H1142   1.046       .  S
C1123      C1126   1.405       .  A
C1123      C1130   1.411       .  A
N1124      H1139   1.045       .  S
N1124      H1140   1.046       .  S
C1126      C1127   1.407       .  A
C1126      H1131   1.084       .  S
C1127      C1128   1.412       .  A
C1127      N1132   1.432       .  S
C1128      C1129   1.410       .  A
C1129      C1130   1.410       .  A
C1129      H1133   1.083       .  S
C1130      N1134   1.437       .  S
N1132      H1135   1.046       .  S
N1132      H1136   1.046       .  S
N1134      H1137   1.046       .  S
N1134      H1138   1.045       .  S
C1143      C1144   1.414       .  A
C1143      C1148   1.404       .  A
C1144      C1145   1.407       .  A
C1144      N1149   1.438       .  S
C1145      C1146   1.401       .  A
C1145      H1150   1.084       .  S
C1146      C1151   1.487       .  S
C1146      C1147   1.412       .  A
C1147      C1148   1.408       .  A
C1147      N1152   1.437       .  S
C1148      H1153   1.084       .  S
N1149      H1169   1.046       .  S
N1149      H1170   1.046       .  S
C1151      C1154   1.402       .  A
C1151      C1158   1.410       .  A
N1152      H1167   1.046       .  S
N1152      H1168   1.045       .  S
C1154      C1155   1.409       .  A
C1154      H1159   1.083       .  S
C1155      C1156   1.415       .  A
C1155      N1160   1.438       .  S
C1156      C1157   1.408       .  A
C1157      C1158   1.407       .  A
C1157      H1161   1.083       .  S
C1158      N1162   1.438       .  S
N1160      H1163   1.045       .  S
N1160      H1164   1.045       .  S
N1162      H1165   1.046       .  S
N1162      H1166   1.046       .  S
C1171      C1172   1.414       .  A
C1171      C1176   1.407       .  A
C1172      C1173   1.411       .  A
C1172      N1177   1.437       .  S
C1173      C1174   1.404       .  A
C1173      H1178   1.084       .  S
C1174      C1179   1.483       .  S
C1174      C1175   1.407       .  A
C1175      C1176   1.403       .  A
C1175      N1180   1.438       .  S
C1176      H1181   1.084       .  S
N1177      H1197   1.045       .  S
N1177      H1198   1.046       .  S
C1179      C1182   1.405       .  A
C1179      C1186   1.407       .  A
N1180      H1195   1.046       .  S
N1180      H1196   1.045       .  S
C1182      C1183   1.413       .  A
C1182      H1187   1.084       .  S
C1183      C1184   1.415       .  A
C1183      N1188   1.437       .  S
C1184      C1185   1.406       .  A
C1185      C1186   1.395       .  A
C1185      H1189   1.082       .  S
C1186      N1190   1.432       .  S
N1188      H1191   1.045       .  S
N1188      H1192   1.045       .  S
N1190      H1193   1.045       .  S
N1190      H1194   1.045       .  S
C1199      C1200   1.408       .  A
C1199      C1204   1.404       .  A
C1200      C1201   1.402       .  A
C1200      N1205   1.432       .  S
C1201      C1202   1.403       .  A
C1201      H1206   1.082       .  S
C1202      C1207   1.486       .  S
C1202      C1203   1.410       .  A
C1203      C1204   1.405       .  A
C1203      N1208   1.432       .  S
C1204      H1209   1.084       .  S
N1205      H1225   1.046       .  S
N1205      H1226   1.045       .  S
C1207      C1210   1.404       .  A
C1207      C1214   1.407       .  A
N1208      H1223   1.045       .  S
N1208      H1224   1.046       .  S
C1210      C1211   1.408       .  A
C1210      H1215   1.084       .  S
C1211      C1212   1.415       .  A
C1211      N1216   1.432       .  S
C1212      C1213   1.409       .  A
C1213      C1214   1.400       .  A
C1213      H1217   1.084       .  S
C1214      N1218   1.433       .  S
N1216      H1219   1.045       .  S
N1216      H1220   1.045       .  S
N1218      H1221   1.046       .  S
N1218      H1222   1.045       .  S
C1227      C1228   1.420       .  A
C1227      C1232   1.401       .  A
C1228      C1229   1.410       .  A
C1228      N1233   1.438       .  S
C1229      C1230   1.400       .  A
C1229      H1234   1.084       .  S
C1230      C1235   1.489       .  S
C1230      C1231   1.411       .  A
C1231      C1232   1.405       .  A
C1231      N1236   1.432       .  S
C1232      H1237   1.083       .  S
N1233      H1253   1.045       .  S
N1233      H1254   1.045       .  S
C1235      C1238   1.406       .  A
C1235      C1242   1.407       .  A
N1236      H1251   1.045       .  S
N1236      H1252   1.046       .  S
C1238      C1239   1.415       .  A
C1238      H1243   1.083       .  S
C1239      C1240   1.413       .  A
C1239      N1244   1.437       .  S
C1240      C1241   1.404       .  A
C1241      C1242   1.401       .  A
C1241      H1245   1.081       .  S
C1242      N1246   1.438       .  S
N1244      H1247   1.046       .  S
N1244      H1248   1.045       .  S
N1246      H1249   1.046       .  S
N1246      H1250   1.046       .  S
C1255      C1256   1.419       .  A
C1255      C1260   1.404       .  A
C1256      C1257   1.397       .  A
C1256      N1261   1.437       .  S
C1257      C1258   1.399       .  A
C1257      H1262   1.084       .  S
C1258      C1263   1.473       .  S
C1258      C1259   1.404       .  A
C1259      C1260   1.399       .  A
C1259      N1264   1.432       .  S
C1260      H1265   1.084       .  S
N1261      H1281   1.041       .  S
N1261      H1282   1.045       .  S
C1263      C1266   1.401       .  A
C1263      C1270   1.406       .  A
N1264      H1279   1.045       .  S
N1264      H1280   1.046       .  S
C1266      C1267   1.404       .  A
C1266      H1271   1.084       .  S
C1267      C1268   1.412       .  A
C1267      N1272   1.438       .  S
C1268      C1269   1.403       .  A
C1269      C1270   1.400       .  A
C1269      H1273   1.084       .  S
C1270      N1274   1.433       .  S
N1272      H1275   1.046       .  S
N1272      H1276   1.045       .  S
N1274      H1277   1.046       .  S
N1274      H1278   1.045       .  S
C1283      C1284   1.414       .  A
C1283      C1288   1.402       .  A
C1284      C1285   1.398       .  A
C1284      N1289   1.437   1_556  S
C1285      C1286   1.407       .  A
C1285      H1290   1.083       .  S
C1286      C1291   1.499       .  S
C1286      C1287   1.416       .  A
C1287      C1288   1.405       .  A
C1287      N1292   1.438       .  S
C1288      H1293   1.081       .  S
N1289      H1309   1.042       .  S
N1289      H1310   1.045   1_554  S
C1291      C1294   1.407       .  A
C1291      C1298   1.414   1_556  A
N1292      H1307   1.046       .  S
N1292      H1308   1.046   1_556  S
C1294      C1295   1.409       .  A
C1294      H1299   1.082       .  S
C1295      C1296   1.418       .  A
C1295      N1300   1.437       .  S
C1296      C1297   1.409   1_556  A
C1297      C1298   1.401       .  A
C1297      H1301   1.082       .  S
C1298      N1302   1.439       .  S
N1300      H1303   1.046       .  S
N1300      H1304   1.046       .  S
N1302      H1305   1.046       .  S
N1302      H1306   1.046       .  S
C1311      C1312   1.417       .  A
C1311      C1316   1.402   1_655  A
C1312      C1313   1.398       .  A
C1312      N1317   1.438       .  S
C1313      C1314   1.398       .  A
C1313      H1318   1.084       .  S
C1314      C1319   1.472       .  S
C1314      C1315   1.407   1_655  A
C1315      C1316   1.403       .  A
C1315      N1320   1.437       .  S
C1316      H1321   1.084       .  S
N1317      H1337   1.044   1_554  S
N1317      H1338   1.044       .  S
C1319      C1322   1.401       .  A
C1319      C1326   1.407   1_655  A
N1320      H1335   1.045       .  S
N1320      H1336   1.046       .  S
C1322      C1323   1.404       .  A
C1322      H1327   1.084       .  S
C1323      C1324   1.410       .  A
C1323      N1328   1.438       .  S
C1324      C1325   1.403   1_655  A
C1325      C1326   1.403       .  A
C1325      H1329   1.084       .  S
C1326      N1330   1.438       .  S
N1328      H1331   1.046       .  S
N1328      H1332   1.046       .  S
N1330      H1333   1.046       .  S
N1330      H1334   1.046       .  S
C1339      C1340   1.407       .  A
C1339      C1344   1.404       .  A
C1340      C1341   1.402       .  A
C1340      N1345   1.431       .  S
C1341      C1342   1.402       .  A
C1341      H1346   1.084       .  S
C1342      C1347   1.482       .  S
C1342      C1343   1.417       .  A
C1343      C1344   1.404       .  A
C1343      N1348   1.439       .  S
C1344      H1349   1.084       .  S
N1345      H1365   1.045       .  S
N1345      H1366   1.045       .  S
C1347      C1350   1.400       .  A
C1347      C1354   1.409       .  A
N1348      H1363   1.043       .  S
N1348      H1364   1.046       .  S
C1350      C1351   1.406       .  A
C1350      H1355   1.084       .  S
C1351      C1352   1.416       .  A
C1351      N1356   1.438       .  S
C1352      C1353   1.407       .  A
C1353      C1354   1.408       .  A
C1353      H1357   1.083       .  S
C1354      N1358   1.438       .  S
N1356      H1359   1.046       .  S
N1356      H1360   1.045       .  S
N1358      H1361   1.046       .  S
N1358      H1362   1.045       .  S
C1367      C1368   1.407       .  A
C1367      C1372   1.401   1_556  A
C1368      C1369   1.398       .  A
C1368      N1373   1.432       .  S
C1369      C1370   1.401   1_556  A
C1369      H1374   1.084       .  S
C1370      C1375   1.469       .  S
C1370      C1371   1.408       .  A
C1371      C1372   1.398       .  A
C1371      N1376   1.438       .  S
C1372      H1377   1.084       .  S
N1373      H1393   1.045       .  S
N1373      H1394   1.045       .  S
C1375      C1378   1.400       .  A
C1375      C1382   1.410       .  A
N1376      H1391   1.046       .  S
N1376      H1392   1.046       .  S
C1378      C1379   1.395       .  A
C1378      H1383   1.084       .  S
C1379      C1380   1.404       .  A
C1379      N1384   1.432       .  S
C1380      C1381   1.401       .  A
C1381      C1382   1.404       .  A
C1381      H1385   1.084       .  S
C1382      N1386   1.438       .  S
N1384      H1387   1.046   1_554  S
N1384      H1388   1.045       .  S
N1386      H1389   1.045       .  S
N1386      H1390   1.046       .  S
C1395      C1396   1.413       .  A
C1395      C1400   1.406       .  A
C1396      C1397   1.404       .  A
C1396      N1401   1.432       .  S
C1397      C1398   1.400       .  A
C1397      H1402   1.084       .  S
C1398      C1403   1.484       .  S
C1398      C1399   1.410       .  A
C1399      C1400   1.409       .  A
C1399      N1404   1.438       .  S
C1400      H1405   1.083       .  S
N1401      H1421   1.046       .  S
N1401      H1422   1.045   1_655  S
C1403      C1406   1.400       .  A
C1403      C1410   1.408   1_655  A
N1404      H1419   1.045       .  S
N1404      H1420   1.045       .  S
C1406      C1407   1.408       .  A
C1406      H1411   1.084       .  S
C1407      C1408   1.419       .  A
C1407      N1412   1.438       .  S
C1408      C1409   1.409   1_655  A
C1409      C1410   1.408       .  A
C1409      H1413   1.083       .  S
C1410      N1414   1.438       .  S
N1412      H1415   1.046       .  S
N1412      H1416   1.045       .  S
N1414      H1417   1.046       .  S
N1414      H1418   1.044       .  S
C1423      C1424   1.416       .  A
C1423      C1428   1.410       .  A
C1424      C1425   1.415       .  A
C1424      N1429   1.437       .  S
C1425      C1426   1.405       .  A
C1425      H1430   1.083       .  S
C1426      C1431   1.485       .  S
C1426      C1427   1.407       .  A
C1427      C1428   1.395       .  A
C1427      N1432   1.433       .  S
C1428      H1433   1.084       .  S
N1429      H1449   1.045       .  S
N1429      H1450   1.046       .  S
C1431      C1434   1.402       .  A
C1431      C1438   1.409       .  A
N1432      H1447   1.045       .  S
N1432      H1448   1.045       .  S
C1434      C1435   1.409       .  A
C1434      H1439   1.084       .  S
C1435      C1436   1.414       .  A
C1435      N1440   1.437       .  S
C1436      C1437   1.405       .  A
C1437      C1438   1.408       .  A
C1437      H1441   1.084       .  S
C1438      N1442   1.438       .  S
N1440      H1443   1.045       .  S
N1440      H1444   1.046       .  S
N1442      H1445   1.045       .  S
N1442      H1446   1.046       .  S
C1451      C1452   1.415       .  A
C1451      C1456   1.409       .  A
C1452      C1453   1.413       .  A
C1452      N1457   1.437       .  S
C1453      C1454   1.407       .  A
C1453      H1458   1.084       .  S
C1454      C1459   1.496       .  S
C1454      C1455   1.409       .  A
C1455      C1456   1.408       .  A
C1455      N1460   1.438       .  S
C1456      H1461   1.083       .  S
N1457      H1477   1.046       .  S
N1457      H1478   1.045       .  S
C1459      C1462   1.406       .  A
C1459      C1466   1.410       .  A
N1460      H1475   1.045       .  S
N1460      H1476   1.046       .  S
C1462      C1463   1.413       .  A
C1462      H1467   1.083       .  S
C1463      C1464   1.415       .  A
C1463      N1468   1.437       .  S
C1464      C1465   1.408       .  A
C1465      C1466   1.407       .  A
C1465      H1469   1.081       .  S
C1466      N1470   1.438       .  S
N1468      H1471   1.045       .  S
N1468      H1472   1.046       .  S
N1470      H1473   1.046       .  S
N1470      H1474   1.046       .  S
C1479      C1480   1.412       .  A
C1479      C1484   1.404       .  A
C1480      C1481   1.404       .  A
C1480      N1485   1.432       .  S
C1481      C1482   1.400       .  A
C1481      H1486   1.084       .  S
C1482      C1487   1.485       .  S
C1482      C1483   1.411       .  A
C1483      C1484   1.407       .  A
C1483      N1488   1.433       .  S
C1484      H1489   1.084       .  S
N1485      H1505   1.046       .  S
N1485      H1506   1.045       .  S
C1487      C1490   1.403       .  A
C1487      C1494   1.406       .  A
N1488      H1503   1.046       .  S
N1488      H1504   1.046       .  S
C1490      C1491   1.405       .  A
C1490      H1495   1.084       .  S
C1491      C1492   1.420       .  A
C1491      N1496   1.432       .  S
C1492      C1493   1.404       .  A
C1493      C1494   1.400       .  A
C1493      H1497   1.077       .  S
C1494      N1498   1.433       .  S
N1496      H1499   1.045       .  S
N1496      H1500   1.045       .  S
N1498      H1501   1.046       .  S
N1498      H1502   1.046       .  S
C1507      C1508   1.416       .  A
C1507      C1512   1.407       .  A
C1508      C1509   1.403       .  A
C1508      N1513   1.439       .  S
C1509      C1510   1.402       .  A
C1509      H1514   1.084       .  S
C1510      C1515   1.488       .  S
C1510      C1511   1.410       .  A
C1511      C1512   1.409       .  A
C1511      N1516   1.432       .  S
C1512      H1517   1.084       .  S
N1513      H1533   1.046       .  S
N1513      H1534   1.045       .  S
C1515      C1518   1.398       .  A
C1515      C1522   1.411       .  A
N1516      H1531   1.046       .  S
N1516      H1532   1.046       .  S
C1518      C1519   1.397       .  A
C1518      H1523   1.084       .  S
C1519      C1520   1.419       .  A
C1519      N1524   1.434       .  S
C1520      C1521   1.407       .  A
C1521      C1522   1.412       .  A
C1521      H1525   1.083       .  S
C1522      N1526   1.431       .  S
N1524      H1527   1.046       .  S
N1524      H1528   1.046       .  S
N1526      H1529   1.045       .  S
N1526      H1530   1.046       .  S
C1535      C1536   1.416       .  A
C1535      C1540   1.411       .  A
C1536      C1537   1.407       .  A
C1536      N1541   1.432       .  S
C1537      C1538   1.404       .  A
C1537      H1542   1.084       .  S
C1538      C1543   1.495       .  S
C1538      C1539   1.411       .  A
C1539      C1540   1.413       .  A
C1539      N1544   1.438       .  S
C1540      H1545   1.083       .  S
N1541      H1561   1.046       .  S
N1541      H1562   1.046       .  S
C1543      C1546   1.404       .  A
C1543      C1550   1.412       .  A
N1544      H1559   1.046       .  S
N1544      H1560   1.045       .  S
C1546      C1547   1.415       .  A
C1546      H1551   1.084       .  S
C1547      C1548   1.417       .  A
C1547      N1552   1.438       .  S
C1548      C1549   1.404       .  A
C1549      C1550   1.408       .  A
C1549      H1553   1.084       .  S
C1550      N1554   1.438       .  S
N1552      H1555   1.046       .  S
N1552      H1556   1.045       .  S
N1554      H1557   1.045       .  S
N1554      H1558   1.046       .  S
C1563      C1564   1.414       .  A
C1563      C1568   1.404       .  A
C1564      C1565   1.408       .  A
C1564      N1569   1.438       .  S
C1565      C1566   1.402       .  A
C1565      H1570   1.084       .  S
C1566      C1571   1.488       .  S
C1566      C1567   1.412       .  A
C1567      C1568   1.409       .  A
C1567      N1572   1.438       .  S
C1568      H1573   1.084       .  S
N1569      H1589   1.045       .  S
N1569      H1590   1.046       .  S
C1571      C1574   1.402       .  A
C1571      C1578   1.413       .  A
N1572      H1587   1.045       .  S
N1572      H1588   1.046       .  S
C1574      C1575   1.407       .  A
C1574      H1579   1.084       .  S
C1575      C1576   1.415       .  A
C1575      N1580   1.432       .  S
C1576      C1577   1.409       .  A
C1577      C1578   1.401       .  A
C1577      H1581   1.084       .  S
C1578      N1582   1.433       .  S
N1580      H1583   1.046       .  S
N1580      H1584   1.044       .  S
N1582      H1585   1.045       .  S
N1582      H1586   1.045       .  S
C1591      C1592   1.416       .  A
C1591      C1596   1.400   1_565  A
C1592      C1593   1.402       .  A
C1592      N1597   1.438       .  S
C1593      C1594   1.402       .  A
C1593      H1598   1.084       .  S
C1594      C1599   1.476       .  S
C1594      C1595   1.408   1_565  A
C1595      C1596   1.400       .  A
C1595      N1600   1.438       .  S
C1596      H1601   1.081       .  S
N1597      H1617   1.043       .  S
N1597      H1618   1.046       .  S
C1599      C1602   1.403       .  A
C1599      C1606   1.410       .  A
N1600      H1615   1.046       .  S
N1600      H1616   1.046       .  S
C1602      C1603   1.401       .  A
C1602      H1607   1.084       .  S
C1603      C1604   1.405       .  A
C1603      N1608   1.432       .  S
C1604      C1605   1.402       .  A
C1605      C1606   1.404       .  A
C1605      H1609   1.084   1_565  S
C1606      N1610   1.438   1_565  S
N1608      H1611   1.045       .  S
N1608      H1612   1.046       .  S
N1610      H1613   1.046       .  S
N1610      H1614   1.045       .  S
C1619      C1620   1.409   1_556  A
C1619      C1624   1.401       .  A
C1620      C1621   1.407   1_554  A
C1620      N1625   1.436       .  S
C1621      C1622   1.408       .  A
C1621      H1626   1.083   1_556  S
C1622      C1627   1.498       .  S
C1622      C1623   1.418       .  A
C1623      C1624   1.399       .  A
C1623      N1628   1.433       .  S
C1624      H1629   1.079       .  S
N1625      H1645   1.045       .  S
N1625      H1646   1.046       .  S
C1627      C1630   1.405       .  A
C1627      C1634   1.412   1_556  A
N1628      H1643   1.042       .  S
N1628      H1644   1.046   1_556  S
C1630      C1631   1.410       .  A
C1630      H1635   1.081       .  S
C1631      C1632   1.420       .  A
C1631      N1636   1.438       .  S
C1632      C1633   1.410   1_556  A
C1633      C1634   1.405       .  A
C1633      H1637   1.081       .  S
C1634      N1638   1.438       .  S
N1636      H1639   1.046       .  S
N1636      H1640   1.046       .  S
N1638      H1641   1.046       .  S
N1638      H1642   1.045       .  S
C1647      C1648   1.414   1_556  A
C1647      C1652   1.399       .  A
C1648      C1649   1.404       .  A
C1648      N1653   1.437       .  S
C1649      C1650   1.411   1_554  A
C1649      H1654   1.083       .  S
C1650      C1655   1.508       .  S
C1650      C1651   1.418       .  A
C1651      C1652   1.406       .  A
C1651      N1656   1.437       .  S
C1652      H1657   1.082       .  S
N1653      H1673   1.043       .  S
N1653      H1674   1.045       .  S
C1655      C1658   1.408   1_556  A
C1655      C1662   1.412       .  A
N1656      H1671   1.046       .  S
N1656      H1672   1.045       .  S
C1658      C1659   1.412       .  A
C1658      H1663   1.083       .  S
C1659      C1660   1.423   1_554  A
C1659      N1664   1.437       .  S
C1660      C1661   1.413       .  A
C1661      C1662   1.403       .  A
C1661      H1665   1.080       .  S
C1662      N1666   1.433       .  S
N1664      H1667   1.046       .  S
N1664      H1668   1.046       .  S
N1666      H1669   1.046       .  S
N1666      H1670   1.046       .  S
C1675      C1676   1.419       .  A
C1675      C1680   1.404       .  A
C1676      C1677   1.402       .  A
C1676      N1681   1.438       .  S
C1677      C1678   1.400       .  A
C1677      H1682   1.084       .  S
C1678      C1683   1.481       .  S
C1678      C1679   1.408       .  A
C1679      C1680   1.407       .  A
C1679      N1684   1.437       .  S
C1680      H1685   1.084       .  S
N1681      H1701   1.043       .  S
N1681      H1702   1.045       .  S
C1683      C1686   1.402       .  A
C1683      C1690   1.404       .  A
N1684      H1699   1.046       .  S
N1684      H1700   1.045       .  S
C1686      C1687   1.410       .  A
C1686      H1691   1.084       .  S
C1687      C1688   1.415       .  A
C1687      N1692   1.437       .  S
C1688      C1689   1.406       .  A
C1689      C1690   1.402       .  A
C1689      H1693   1.084       .  S
C1690      N1694   1.432       .  S
N1692      H1695   1.046       .  S
N1692      H1696   1.046       .  S
N1694      H1697   1.046       .  S
N1694      H1698   1.046       .  S
C1703      C1704   1.418       .  A
C1703      C1708   1.404       .  A
C1704      C1705   1.401       .  A
C1704      N1709   1.438       .  S
C1705      C1706   1.399       .  A
C1705      H1710   1.084       .  S
C1706      C1711   1.480       .  S
C1706      C1707   1.408       .  A
C1707      C1708   1.407       .  A
C1707      N1712   1.437       .  S
C1708      H1713   1.083       .  S
N1709      H1729   1.043       .  S
N1709      H1730   1.045       .  S
C1711      C1714   1.402       .  A
C1711      C1718   1.409       .  A
N1712      H1727   1.046       .  S
N1712      H1728   1.045       .  S
C1714      C1715   1.408       .  A
C1714      H1719   1.084       .  S
C1715      C1716   1.412       .  A
C1715      N1720   1.437       .  S
C1716      C1717   1.403       .  A
C1717      C1718   1.405       .  A
C1717      H1721   1.084       .  S
C1718      N1722   1.438       .  S
N1720      H1723   1.046       .  S
N1720      H1724   1.046       .  S
N1722      H1725   1.046       .  S
N1722      H1726   1.045       .  S
C1731      C1732   1.409       .  A
C1731      C1736   1.405   1_545  A
C1732      C1733   1.400       .  A
C1732      N1737   1.432       .  S
C1733      C1734   1.400       .  A
C1733      H1738   1.084       .  S
C1734      C1739   1.475       .  S
C1734      C1735   1.406   1_545  A
C1735      C1736   1.403       .  A
C1735      N1740   1.433       .  S
C1736      H1741   1.084       .  S
N1737      H1757   1.045       .  S
N1737      H1758   1.046       .  S
C1739      C1742   1.400   1_545  A
C1739      C1746   1.416       .  A
N1740      H1755   1.046       .  S
N1740      H1756   1.045       .  S
C1742      C1743   1.398       .  A
C1742      H1747   1.084       .  S
C1743      C1744   1.408   1_565  A
C1743      N1748   1.431       .  S
C1744      C1745   1.402       .  A
C1745      C1746   1.401       .  A
C1745      H1749   1.084       .  S
C1746      N1750   1.438       .  S
N1748      H1751   1.045       .  S
N1748      H1752   1.045       .  S
N1750      H1753   1.046       .  S
N1750      H1754   1.043       .  S
C1759      C1760   1.414       .  A
C1759      C1764   1.409       .  A
C1760      C1761   1.400       .  A
C1760      N1765   1.433       .  S
C1761      C1762   1.400       .  A
C1761      H1766   1.084       .  S
C1762      C1767   1.480       .  S
C1762      C1763   1.415       .  A
C1763      C1764   1.406       .  A
C1763      N1768   1.438       .  S
C1764      H1769   1.084       .  S
N1765      H1785   1.046       .  S
N1765      H1786   1.046       .  S
C1767      C1770   1.401       .  A
C1767      C1774   1.408       .  A
N1768      H1783   1.044       .  S
N1768      H1784   1.044       .  S
C1770      C1771   1.401       .  A
C1770      H1775   1.080       .  S
C1771      C1772   1.409       .  A
C1771      N1776   1.433       .  S
C1772      C1773   1.406       .  A
C1773      C1774   1.406       .  A
C1773      H1777   1.084       .  S
C1774      N1778   1.437       .  S
N1776      H1779   1.046       .  S
N1776      H1780   1.046       .  S
N1778      H1781   1.046       .  S
N1778      H1782   1.046       .  S
C1787      C1788   1.412       .  A
C1787      C1792   1.404       .  A
C1788      C1789   1.414       .  A
C1788      N1793   1.437       .  S
C1789      C1790   1.408       .  A
C1789      H1794   1.083       .  S
C1790      C1795   1.492       .  S
C1790      C1791   1.405       .  A
C1791      C1792   1.399       .  A
C1791      N1796   1.430       .  S
C1792      H1797   1.084       .  S
N1793      H1813   1.038       .  S
N1793      H1814   1.046       .  S
C1795      C1798   1.407       .  A
C1795      C1802   1.410       .  A
N1796      H1811   1.045       .  S
N1796      H1812   1.043       .  S
C1798      C1799   1.404       .  A
C1798      H1803   1.083       .  S
C1799      C1800   1.408       .  A
C1799      N1804   1.432       .  S
C1800      C1801   1.409       .  A
C1801      C1802   1.408       .  A
C1801      H1805   1.083       .  S
C1802      N1806   1.437       .  S
N1804      H1807   1.045       .  S
N1804      H1808   1.046       .  S
N1806      H1809   1.045       .  S
N1806      H1810   1.045       .  S
C1815      C1816   1.417       .  A
C1815      C1820   1.406       .  A
C1816      C1817   1.403       .  A
C1816      N1821   1.433       .  S
C1817      C1818   1.399       .  A
C1817      H1822   1.084       .  S
C1818      C1823   1.485       .  S
C1818      C1819   1.410       .  A
C1819      C1820   1.408       .  A
C1819      N1824   1.437       .  S
C1820      H1825   1.081       .  S
N1821      H1841   1.046       .  S
N1821      H1842   1.046       .  S
C1823      C1826   1.403       .  A
C1823      C1830   1.410       .  A
N1824      H1839   1.046       .  S
N1824      H1840   1.046       .  S
C1826      C1827   1.405       .  A
C1826      H1831   1.084       .  S
C1827      C1828   1.408       .  A
C1827      N1832   1.437       .  S
C1828      C1829   1.404       .  A
C1829      C1830   1.410       .  A
C1829      H1833   1.084       .  S
C1830      N1834   1.437       .  S
N1832      H1835   1.046       .  S
N1832      H1836   1.046       .  S
N1834      H1837   1.046       .  S
N1834      H1838   1.046       .  S
C1843      C1844   1.415       .  A
C1843      C1848   1.406       .  A
C1844      C1845   1.414       .  A
C1844      N1849   1.437       .  S
C1845      C1846   1.405       .  A
C1845      H1850   1.083       .  S
C1846      C1851   1.490       .  S
C1846      C1847   1.409       .  A
C1847      C1848   1.404       .  A
C1847      N1852   1.438       .  S
C1848      H1853   1.083       .  S
N1849      H1869   1.046       .  S
N1849      H1870   1.046       .  S
C1851      C1854   1.405       .  A
C1851      C1858   1.410       .  A
N1852      H1867   1.045       .  S
N1852      H1868   1.046       .  S
C1854      C1855   1.409       .  A
C1854      H1859   1.084       .  S
C1855      C1856   1.411       .  A
C1855      N1860   1.438       .  S
C1856      C1857   1.406       .  A
C1857      C1858   1.409       .  A
C1857      H1861   1.084       .  S
C1858      N1862   1.438       .  S
N1860      H1863   1.045       .  S
N1860      H1864   1.046       .  S
N1862      H1865   1.046       .  S
N1862      H1866   1.046       .  S
C1871      C1872   1.417       .  A
C1871      C1876   1.405       .  A
C1872      C1873   1.411       .  A
C1872      N1877   1.437       .  S
C1873      C1874   1.402       .  A
C1873      H1878   1.082       .  S
C1874      C1879   1.484       .  S
C1874      C1875   1.405       .  A
C1875      C1876   1.404       .  A
C1875      N1880   1.438       .  S
C1876      H1881   1.076       .  S
N1877      H1897   1.046       .  S
N1877      H1898   1.044       .  S
C1879      C1882   1.400       .  A
C1879      C1886   1.410       .  A
N1880      H1895   1.044       .  S
N1880      H1896   1.046       .  S
C1882      C1883   1.405       .  A
C1882      H1887   1.084       .  S
C1883      C1884   1.417       .  A
C1883      N1888   1.438       .  S
C1884      C1885   1.407       .  A
C1885      C1886   1.410       .  A
C1885      H1889   1.083       .  S
C1886      N1890   1.437       .  S
N1888      H1891   1.046       .  S
N1888      H1892   1.045       .  S
N1890      H1893   1.046       .  S
N1890      H1894   1.046       .  S
C1899      C1900   1.418       .  A
C1899      C1904   1.409       .  A
C1900      C1901   1.415       .  A
C1900      N1905   1.437       .  S
C1901      C1902   1.404       .  A
C1901      H1906   1.083       .  S
C1902      C1907   1.488       .  S
C1902      C1903   1.404       .  A
C1903      C1904   1.400       .  A
C1903      N1908   1.433       .  S
C1904      H1909   1.083       .  S
N1905      H1925   1.045       .  S
N1905      H1926   1.046       .  S
C1907      C1910   1.402       .  A
C1907      C1914   1.408       .  A
N1908      H1923   1.045       .  S
N1908      H1924   1.046       .  S
C1910      C1911   1.412       .  A
C1910      H1915   1.084       .  S
C1911      C1912   1.417       .  A
C1911      N1916   1.437       .  S
C1912      C1913   1.404       .  A
C1913      C1914   1.403       .  A
C1913      H1917   1.084       .  S
C1914      N1918   1.430       .  S
N1916      H1919   1.046       .  S
N1916      H1920   1.045       .  S
N1918      H1921   1.046       .  S
N1918      H1922   1.046       .  S
C1927      C1928   1.420       .  A
C1927      C1932   1.410       .  A
C1928      C1929   1.402       .  A
C1928      N1933   1.433       .  S
C1929      C1930   1.398       .  A
C1929      H1934   1.084       .  S
C1930      C1935   1.490       .  S
C1930      C1931   1.411       .  A
C1931      C1932   1.415       .  A
C1931      N1936   1.437       .  S
C1932      H1937   1.083       .  S
N1933      H1953   1.046       .  S
N1933      H1954   1.045       .  S
C1935      C1938   1.401       .  A
C1935      C1942   1.411       .  A
N1936      H1951   1.046       .  S
N1936      H1952   1.045       .  S
C1938      C1939   1.410       .  A
C1938      H1943   1.084       .  S
C1939      C1940   1.419       .  A
C1939      N1944   1.438       .  S
C1940      C1941   1.404       .  A
C1941      C1942   1.410       .  A
C1941      H1945   1.083       .  S
C1942      N1946   1.435       .  S
N1944      H1947   1.046       .  S
N1944      H1948   1.045       .  S
N1946      H1949   1.045       .  S
N1946      H1950   1.046       .  S
C1955      C1956   1.412       .  A
C1955      C1960   1.408       .  A
C1956      C1957   1.398       .  A
C1956      N1961   1.427       .  S
C1957      C1958   1.396       .  A
C1957      H1962   1.084       .  S
C1958      C1963   1.482       .  S
C1958      C1959   1.410       .  A
C1959      C1960   1.412       .  A
C1959      N1964   1.437       .  S
C1960      H1965   1.083       .  S
N1961      H1981   1.046       .  S
N1961      H1982   1.044       .  S
C1963      C1966   1.402       .  A
C1963      C1970   1.413       .  A
N1964      H1979   1.045       .  S
N1964      H1980   1.043       .  S
C1966      C1967   1.403       .  A
C1966      H1971   1.084       .  S
C1967      C1968   1.408       .  A
C1967      N1972   1.432       .  S
C1968      C1969   1.402       .  A
C1969      C1970   1.406       .  A
C1969      H1973   1.084       .  S
C1970      N1974   1.438       .  S
N1972      H1975   1.046       .  S
N1972      H1976   1.045       .  S
N1974      H1977   1.045       .  S
N1974      H1978   1.045       .  S
C1983      C1984   1.419       .  A
C1983      C1988   1.411       .  A
C1984      C1985   1.415       .  A
C1984      N1989   1.437       .  S
C1985      C1986   1.404       .  A
C1985      H1990   1.084       .  S
C1986      C1991   1.490       .  S
C1986      C1987   1.409       .  A
C1987      C1988   1.399       .  A
C1987      N1992   1.432       .  S
C1988      H1993   1.084       .  S
N1989      H2009   1.046       .  S
N1989      H2010   1.045       .  S
C1991      C1994   1.404       .  A
C1991      C1998   1.409       .  A
N1992      H2007   1.044       .  S
N1992      H2008   1.045       .  S
C1994      C1995   1.407       .  A
C1994      H1999   1.082       .  S
C1995      C1996   1.408       .  A
C1995      N2000   1.432       .  S
C1996      C1997   1.406       .  A
C1997      C1998   1.412       .  A
C1997      H2001   1.083       .  S
C1998      N2002   1.437       .  S
N2000      H2003   1.046       .  S
N2000      H2004   1.046       .  S
N2002      H2005   1.045       .  S
N2002      H2006   1.045       .  S
C2011      C2012   1.417       .  A
C2011      C2016   1.409       .  A
C2012      C2013   1.404       .  A
C2012      N2017   1.433       .  S
C2013      C2014   1.401       .  A
C2013      H2018   1.084       .  S
C2014      C2019   1.489       .  S
C2014      C2015   1.407       .  A
C2015      C2016   1.410       .  A
C2015      N2020   1.431       .  S
C2016      H2021   1.084       .  S
N2017      H2037   1.046       .  S
N2017      H2038   1.045       .  S
C2019      C2022   1.404       .  A
C2019      C2026   1.408       .  A
N2020      H2035   1.043       .  S
N2020      H2036   1.045       .  S
C2022      C2023   1.405       .  A
C2022      H2027   1.082       .  S
C2023      C2024   1.412       .  A
C2023      N2028   1.432       .  S
C2024      C2025   1.407       .  A
C2025      C2026   1.405       .  A
C2025      H2029   1.084       .  S
C2026      N2030   1.432       .  S
N2028      H2031   1.045       .  S
N2028      H2032   1.046       .  S
N2030      H2033   1.046       .  S
N2030      H2034   1.045       .  S
C2039      C2040   1.415       .  A
C2039      C2044   1.405       .  A
C2040      C2041   1.406       .  A
C2040      N2045   1.433       .  S
C2041      C2042   1.402       .  A
C2041      H2046   1.084       .  S
C2042      C2047   1.494       .  S
C2042      C2043   1.412       .  A
C2043      C2044   1.411       .  A
C2043      N2048   1.437       .  S
C2044      H2049   1.083       .  S
N2045      H2065   1.046       .  S
N2045      H2066   1.045       .  S
C2047      C2050   1.407       .  A
C2047      C2054   1.411       .  A
N2048      H2063   1.045       .  S
N2048      H2064   1.045       .  S
C2050      C2051   1.410       .  A
C2050      H2055   1.084       .  S
C2051      C2052   1.408       .  A
C2051      N2056   1.437       .  S
C2052      C2053   1.404       .  A
C2053      C2054   1.410       .  A
C2053      H2057   1.084       .  S
C2054      N2058   1.437       .  S
N2056      H2059   1.046       .  S
N2056      H2060   1.046       .  S
N2058      H2061   1.045       .  S
N2058      H2062   1.046       .  S
C2067      C2068   1.412       .  A
C2067      C2072   1.406       .  A
C2068      C2069   1.396       .  A
C2068      N2073   1.433       .  S
C2069      C2070   1.399       .  A
C2069      H2074   1.084       .  S
C2070      C2075   1.474       .  S
C2070      C2071   1.408       .  A
C2071      C2072   1.407       .  A
C2071      N2076   1.437       .  S
C2072      H2077   1.084       .  S
N2073      H2093   1.046       .  S
N2073      H2094   1.045       .  S
C2075      C2078   1.401       .  A
C2075      C2082   1.408       .  A
N2076      H2091   1.046       .  S
N2076      H2092   1.045       .  S
C2078      C2079   1.402       .  A
C2078      H2083   1.084       .  S
C2079      C2080   1.408       .  A
C2079      N2084   1.432       .  S
C2080      C2081   1.401       .  A
C2081      C2082   1.400       .  A
C2081      H2085   1.084       .  S
C2082      N2086   1.433       .  S
N2084      H2087   1.045       .  S
N2084      H2088   1.046       .  S
N2086      H2089   1.046       .  S
N2086      H2090   1.045       .  S
C2095      C2096   1.418       .  A
C2095      C2100   1.409       .  A
C2096      C2097   1.411       .  A
C2096      N2101   1.432       .  S
C2097      C2098   1.404       .  A
C2097      H2102   1.084       .  S
C2098      C2103   1.492       .  S
C2098      C2099   1.408       .  A
C2099      C2100   1.403       .  A
C2099      N2104   1.432       .  S
C2100      H2105   1.083       .  S
N2101      H2121   1.045       .  S
N2101      H2122   1.046       .  S
C2103      C2106   1.404       .  A
C2103      C2110   1.411       .  A
N2104      H2119   1.044       .  S
N2104      H2120   1.045       .  S
C2106      C2107   1.403       .  A
C2106      H2111   1.084       .  S
C2107      C2108   1.417       .  A
C2107      N2112   1.433       .  S
C2108      C2109   1.404       .  A
C2109      C2110   1.407       .  A
C2109      H2113   1.084       .  S
C2110      N2114   1.432       .  S
N2112      H2115   1.043       .  S
N2112      H2116   1.046       .  S
N2114      H2117   1.046       .  S
N2114      H2118   1.046       .  S
C2123      C2124   1.413       .  A
C2123      C2128   1.406       .  A
C2124      C2125   1.400       .  A
C2124      N2129   1.433       .  S
C2125      C2126   1.404       .  A
C2125      H2130   1.083       .  S
C2126      C2131   1.502       .  S
C2126      C2127   1.417       .  A
C2127      C2128   1.416       .  A
C2127      N2132   1.437       .  S
C2128      H2133   1.083       .  S
N2129      H2149   1.046       .  S
N2129      H2150   1.045       .  S
C2131      C2134   1.409       .  A
C2131      C2138   1.413       .  A
N2132      H2147   1.046       .  S
N2132      H2148   1.046       .  S
C2134      C2135   1.414       .  A
C2134      H2139   1.083       .  S
C2135      C2136   1.415       .  A
C2135      N2140   1.431       .  S
C2136      C2137   1.411       .  A
C2137      C2138   1.402       .  A
C2137      H2141   1.082       .  S
C2138      N2142   1.439       .  S
N2140      H2143   1.046       .  S
N2140      H2144   1.045       .  S
N2142      H2145   1.046       .  S
N2142      H2146   1.046       .  S
C2151      C2152   1.417       .  A
C2151      C2156   1.407       .  A
C2152      C2153   1.404       .  A
C2152      N2157   1.438       .  S
C2153      C2154   1.399       .  A
C2153      H2158   1.084       .  S
C2154      C2159   1.478       .  S
C2154      C2155   1.407       .  A
C2155      C2156   1.407       .  A
C2155      N2160   1.436       .  S
C2156      H2161   1.084       .  S
N2157      H2177   1.046       .  S
N2157      H2178   1.046       .  S
C2159      C2162   1.402       .  A
C2159      C2166   1.410       .  A
N2160      H2175   1.045       .  S
N2160      H2176   1.046       .  S
C2162      C2163   1.410       .  A
C2162      H2167   1.083       .  S
C2163      C2164   1.411       .  A
C2163      N2168   1.437       .  S
C2164      C2165   1.399       .  A
C2165      C2166   1.402       .  A
C2165      H2169   1.084       .  S
C2166      N2170   1.438       .  S
N2168      H2171   1.046       .  S
N2168      H2172   1.046       .  S
N2170      H2173   1.045       .  S
N2170      H2174   1.045       .  S
C2179      C2180   1.411       .  A
C2179      C2184   1.402       .  A
C2180      C2181   1.409       .  A
C2180      N2185   1.432       .  S
C2181      C2182   1.405       .  A
C2181      H2186   1.083       .  S
C2182      C2187   1.493       .  S
C2182      C2183   1.412       .  A
C2183      C2184   1.404       .  A
C2183      N2188   1.433       .  S
C2184      H2189   1.084       .  S
N2185      H2205   1.046       .  S
N2185      H2206   1.045       .  S
C2187      C2190   1.404       .  A
C2187      C2194   1.415       .  A
N2188      H2203   1.046       .  S
N2188      H2204   1.045       .  S
C2190      C2191   1.405       .  A
C2190      H2195   1.084       .  S
C2191      C2192   1.414       .  A
C2191      N2196   1.432       .  S
C2192      C2193   1.409       .  A
C2193      C2194   1.402       .  A
C2193      H2197   1.084       .  S
C2194      N2198   1.432       .  S
N2196      H2199   1.046       .  S
N2196      H2200   1.045       .  S
N2198      H2201   1.043       .  S
N2198      H2202   1.044       .  S
C2207      C2208   1.420       .  A
C2207      C2212   1.409       .  A
C2208      C2209   1.409       .  A
C2208      N2213   1.438       .  S
C2209      C2210   1.402       .  A
C2209      H2214   1.084       .  S
C2210      C2215   1.487       .  S
C2210      C2211   1.411       .  A
C2211      C2212   1.399       .  A
C2211      N2216   1.432       .  S
C2212      H2217   1.084       .  S
N2213      H2233   1.045       .  S
N2213      H2234   1.046       .  S
C2215      C2218   1.404       .  A
C2215      C2222   1.408       .  A
N2216      H2231   1.044       .  S
N2216      H2232   1.046       .  S
C2218      C2219   1.404       .  A
C2218      H2223   1.084       .  S
C2219      C2220   1.418       .  A
C2219      N2224   1.439       .  S
C2220      C2221   1.407       .  A
C2221      C2222   1.408       .  A
C2221      H2225   1.084       .  S
C2222      N2226   1.437       .  S
N2224      H2227   1.046       .  S
N2224      H2228   1.042       .  S
N2226      H2229   1.046       .  S
N2226      H2230   1.046       .  S
C2235      C2236   1.426       .  A
C2235      C2240   1.409       .  A
C2236      C2237   1.407       .  A
C2236      N2241   1.432       .  S
C2237      C2238   1.402       .  A
C2237      H2242   1.084       .  S
C2238      C2243   1.493       .  S
C2238      C2239   1.407       .  A
C2239      C2240   1.406       .  A
C2239      N2244   1.432       .  S
C2240      H2245   1.083       .  S
N2241      H2261   1.046       .  S
N2241      H2262   1.044       .  S
C2243      C2246   1.402       .  A
C2243      C2250   1.414       .  A
N2244      H2259   1.046       .  S
N2244      H2260   1.045       .  S
C2246      C2247   1.408       .  A
C2246      H2251   1.084       .  S
C2247      C2248   1.415       .  A
C2247      N2252   1.438       .  S
C2248      C2249   1.405       .  A
C2249      C2250   1.413       .  A
C2249      H2253   1.083       .  S
C2250      N2254   1.437       .  S
N2252      H2255   1.046       .  S
N2252      H2256   1.046       .  S
N2254      H2257   1.046       .  S
N2254      H2258   1.045       .  S
C2263      C2264   1.410       .  A
C2263      C2268   1.403       .  A
C2264      C2265   1.409       .  A
C2264      N2269   1.432       .  S
C2265      C2266   1.404       .  A
C2265      H2270   1.084       .  S
C2266      C2271   1.483       .  S
C2266      C2267   1.407       .  A
C2267      C2268   1.400       .  A
C2267      N2272   1.433       .  S
C2268      H2273   1.083       .  S
N2269      H2289   1.045       .  S
N2269      H2290   1.045       .  S
C2271      C2274   1.404       .  A
C2271      C2278   1.408       .  A
N2272      H2287   1.046       .  S
N2272      H2288   1.045       .  S
C2274      C2275   1.406       .  A
C2274      H2279   1.084       .  S
C2275      C2276   1.409       .  A
C2275      N2280   1.432       .  S
C2276      C2277   1.405       .  A
C2277      C2278   1.406       .  A
C2277      H2281   1.084       .  S
C2278      N2282   1.437       .  S
N2280      H2283   1.046       .  S
N2280      H2284   1.045       .  S
N2282      H2285   1.046       .  S
N2282      H2286   1.045       .  S
C2291      C2292   1.411       .  A
C2291      C2296   1.404       .  A
C2292      C2293   1.407       .  A
C2292      N2297   1.432       .  S
C2293      C2294   1.402       .  A
C2293      H2298   1.084       .  S
C2294      C2299   1.478       .  S
C2294      C2295   1.408       .  A
C2295      C2296   1.400       .  A
C2295      N2300   1.438       .  S
C2296      H2301   1.084       .  S
N2297      H2317   1.046       .  S
N2297      H2318   1.045       .  S
C2299      C2302   1.403       .  A
C2299      C2306   1.408       .  A
N2300      H2315   1.046       .  S
N2300      H2316   1.045       .  S
C2302      C2303   1.397       .  A
C2302      H2307   1.084       .  S
C2303      C2304   1.410       .  A
C2303      N2308   1.433       .  S
C2304      C2305   1.405       .  A
C2305      C2306   1.408       .  A
C2305      H2309   1.084       .  S
C2306      N2310   1.437       .  S
N2308      H2311   1.046       .  S
N2308      H2312   1.045       .  S
N2310      H2313   1.046       .  S
N2310      H2314   1.046       .  S
C2319      C2320   1.414       .  A
C2319      C2324   1.404       .  A
C2320      C2321   1.405       .  A
C2320      N2325   1.433       .  S
C2321      C2322   1.402       .  A
C2321      H2326   1.084       .  S
C2322      C2327   1.493       .  S
C2322      C2323   1.414       .  A
C2323      C2324   1.412       .  A
C2323      N2328   1.436       .  S
C2324      H2329   1.083       .  S
N2325      H2345   1.046       .  S
N2325      H2346   1.046       .  S
C2327      C2330   1.403       .  A
C2327      C2334   1.412       .  A
N2328      H2343   1.045       .  S
N2328      H2344   1.045       .  S
C2330      C2331   1.408       .  A
C2330      H2335   1.084       .  S
C2331      C2332   1.416       .  A
C2331      N2336   1.432       .  S
C2332      C2333   1.408       .  A
C2333      C2334   1.408       .  A
C2333      H2337   1.083       .  S
C2334      N2338   1.438       .  S
N2336      H2339   1.045       .  S
N2336      H2340   1.046       .  S
N2338      H2341   1.046       .  S
N2338      H2342   1.046       .  S
C2347      C2348   1.415       .  A
C2347      C2352   1.408       .  A
C2348      C2349   1.405       .  A
C2348      N2353   1.432       .  S
C2349      C2350   1.401       .  A
C2349      H2354   1.084       .  S
C2350      C2355   1.487       .  S
C2350      C2351   1.410       .  A
C2351      C2352   1.409       .  A
C2351      N2356   1.437       .  S
C2352      H2357   1.082       .  S
N2353      H2373   1.044       .  S
N2353      H2374   1.045       .  S
C2355      C2358   1.403       .  A
C2355      C2362   1.411       .  A
N2356      H2371   1.045       .  S
N2356      H2372   1.046       .  S
C2358      C2359   1.404       .  A
C2358      H2363   1.084       .  S
C2359      C2360   1.414       .  A
C2359      N2364   1.432       .  S
C2360      C2361   1.401       .  A
C2361      C2362   1.405       .  A
C2361      H2365   1.084       .  S
C2362      N2366   1.432       .  S
N2364      H2367   1.046       .  S
N2364      H2368   1.045       .  S
N2366      H2369   1.046       .  S
N2366      H2370   1.045       .  S
C2375      C2376   1.420       .  A
C2375      C2380   1.409       .  A
C2376      C2377   1.407       .  A
C2376      N2381   1.438       .  S
C2377      C2378   1.402       .  A
C2377      H2382   1.084       .  S
C2378      C2383   1.493       .  S
C2378      C2379   1.411       .  A
C2379      C2380   1.410       .  A
C2379      N2384   1.438       .  S
C2380      H2385   1.083       .  S
N2381      H2401   1.046       .  S
N2381      H2402   1.046       .  S
C2383      C2386   1.405       .  A
C2383      C2390   1.415       .  A
N2384      H2399   1.046       .  S
N2384      H2400   1.044       .  S
C2386      C2387   1.410       .  A
C2386      H2391   1.083       .  S
C2387      C2388   1.410       .  A
C2387      N2392   1.437       .  S
C2388      C2389   1.401       .  A
C2389      C2390   1.406       .  A
C2389      H2393   1.084       .  S
C2390      N2394   1.438       .  S
N2392      H2395   1.046       .  S
N2392      H2396   1.045       .  S
N2394      H2397   1.045       .  S
N2394      H2398   1.045       .  S
C2403      C2404   1.411       .  A
C2403      C2408   1.401       .  A
C2404      C2405   1.405       .  A
C2404      N2409   1.437       .  S
C2405      C2406   1.402       .  A
C2405      H2410   1.084       .  S
C2406      C2411   1.479       .  S
C2406      C2407   1.412       .  A
C2407      C2408   1.401       .  A
C2407      N2412   1.439       .  S
C2408      H2413   1.084       .  S
N2409      H2429   1.046       .  S
N2409      H2430   1.045       .  S
C2411      C2414   1.402       .  A
C2411      C2418   1.408       .  A
N2412      H2427   1.046       .  S
N2412      H2428   1.046       .  S
C2414      C2415   1.404       .  A
C2414      H2419   1.084       .  S
C2415      C2416   1.413       .  A
C2415      N2420   1.438       .  S
C2416      C2417   1.406       .  A
C2417      C2418   1.402       .  A
C2417      H2421   1.084       .  S
C2418      N2422   1.437       .  S
N2420      H2423   1.046       .  S
N2420      H2424   1.045       .  S
N2422      H2425   1.045       .  S
N2422      H2426   1.045       .  S
