geometry optimzed in LAMMPS
_audit_creation_date              2020-11-30 
_audit_creation_method            'lammps2cif' 
_symmetry_space_group_name_H-M    'P1' 
_symmetry_Int_Tables_number       1 
_symmetry_cell_setting            triclinic 
loop_ 
_symmetry_equiv_pos_as_xyz 
  x,y,z 
_cell_length_a                    42.59150506 
_cell_length_b                    42.30169212955239 
_cell_length_c                    41.962988913567685 
_cell_angle_alpha                 89.96988206253937 
_cell_angle_beta                  89.95837528353654 
_cell_angle_gamma                 89.97256470766264 
loop_ 
_atom_site_label 
_atom_site_type_symbol 
_atom_site_fract_x 
_atom_site_fract_y 
_atom_site_fract_z 
_atom_site_charge 
O1          O  0.50836566  0.48305456  0.41320236    -0.78000
C2          C  0.42506176  0.53685091  0.43258353     0.83100
O3          O  0.55083129  0.56942903  0.48795576    -0.79100
O4          O  0.45186373  0.54290770  0.54254193    -0.80600
O5          O  0.46501847  0.43246155  0.50146089    -0.80400
O6          O  0.51490835  0.43908288  0.44047184    -0.79000
Zn7        Zn  0.49698419  0.52111841  0.44167886     1.55700
O8          O  0.42718444  0.46705622  0.51291410    -0.80400
Cd9        Cd  0.50373453  0.46020304  0.48593631     1.59700
Cd10       Cd  0.52528676  0.53410742  0.51474245     1.59600
O11         O  0.54084072  0.45797236  0.52028472    -0.80400
O12         O  0.49330811  0.50751432  0.48588050    -1.90900
Cd13       Cd  0.44745776  0.51265612  0.50018885     1.59900
O14         O  0.55657474  0.50357593  0.54134262    -0.80300
O15         O  0.41781744  0.53033915  0.46165449    -0.79000
C16         C  0.54906724  0.57550283  0.45806402     0.83500
C17         C  0.51459292  0.45343551  0.41366465     0.83200
O18         O  0.45373188  0.53487135  0.42344473    -0.77900
C19         C  0.43723099  0.43832377  0.51163437     0.84000
O20         O  0.53092410  0.55834590  0.44040854    -0.78000
C21         C  0.55818117  0.47332926  0.54028686     0.84100
C22         C  0.47251168  0.55796259  0.55969479     0.84500
O23         O  0.50134980  0.55890749  0.55140329    -0.80500
O24         O  0.47474543  0.32400490  0.22207525    -0.78000
C25         C  0.53160297  0.31475675  0.30268223     0.83100
O26         O  0.56220762  0.24745412  0.18183047    -0.79100
O27         O  0.54651380  0.20508020  0.28707983    -0.80600
O28         O  0.43240596  0.23763985  0.27648364    -0.80400
O29         O  0.43155746  0.29555798  0.22285321    -0.79000
Zn30       Zn  0.51359491  0.29716619  0.23228835     1.55700
O31         O  0.46983912  0.22986021  0.31293870    -0.80400
Cd32       Cd  0.45530353  0.25097039  0.23339501     1.59700
Cd33       Cd  0.52891851  0.22338806  0.21093732     1.59600
O34         O  0.45227613  0.21466039  0.19629170    -0.80400
O35         O  0.50270667  0.25357399  0.24151349    -1.90900
Cd36       Cd  0.51242506  0.24426257  0.28861711     1.59900
O37         O  0.49894902  0.19515466  0.18199354    -0.80300
O38         O  0.52763429  0.28664621  0.31362998    -0.79000
C39         C  0.56709998  0.27719362  0.18076646     0.83500
C40         C  0.44481227  0.32258713  0.21999621     0.83200
O41         O  0.52799335  0.32014136  0.27290853    -0.77900
C42         C  0.44070233  0.22947652  0.30473872     0.84000
O43         O  0.54921075  0.29619575  0.19679889    -0.78000
C44         C  0.46900762  0.19495504  0.17960305     0.84100
C45         C  0.56013417  0.18647551  0.26654138     0.84500
O46         O  0.55649820  0.19060823  0.23665482    -0.80500
C47         C  0.74693780  0.71370390  0.71835411     0.80800
N48         N  0.74472837  0.73146366  0.69141988    -0.77600
C49         C  0.72600078  0.75759572  0.69092080     0.83200
N50         N  0.71068428  0.76592787  0.71782227    -0.77500
C51         C  0.71344160  0.74920746  0.74503854     0.83300
N52         N  0.73166408  0.72305715  0.74519794    -0.79200
C53         C  0.74797549  0.96032187  0.97266914     0.80800
N54         N  0.75788320  0.97838099  0.94765618    -0.77600
C55         C  0.78565005  0.99410979  0.94932681     0.83200
N56         N  0.80312287  0.99200431  0.97611202    -0.77500
C57         C  0.79385823  0.97383179  0.00067635     0.83300
N58         N  0.76655993  0.95757681  0.99881006    -0.79200
C59         C  0.94531523  0.80761457  0.97391097     0.80800
N60         N  0.96982406  0.81848250  0.95640009    -0.77600
C61         C  0.97169048  0.81232021  0.92480674     0.83200
N62         N  0.94906432  0.79464387  0.91105216    -0.77500
C63         C  0.92450694  0.78348882  0.92808550     0.83300
N64         N  0.92294534  0.78984353  0.95965745    -0.79200
C65         C  0.97605559  0.95839468  0.73541252     0.80800
N66         N  0.00386906  0.94981101  0.72240243    -0.77600
C67         C  0.02971844  0.96854032  0.72504688     0.83200
N68         N  0.02716210  0.99671431  0.74060791    -0.77500
C69         C  0.99908407  0.00557579  0.75300246     0.83300
N70         N  0.97397930  0.98636372  0.75052711    -0.79200
N71         N  0.11072902  0.85762064  0.80944174    -0.36100
N72         N  0.16454580  0.89299338  0.79857763    -0.56600
N73         N  0.19726697  0.87127114  0.85825739    -0.36100
N74         N  0.14133690  0.83875546  0.87244207    -0.56600
C75         C  0.10113522  0.87771971  0.78632524     0.27500
C76         C  0.08618581  0.85335203  0.82909222     0.27500
C77         C  0.21141513  0.89976088  0.85256215     0.27500
C78         C  0.20356448  0.86146694  0.88869682     0.27500
C79         C  0.15308242  0.89249500  0.76862036     0.36100
C80         C  0.19381843  0.90422159  0.79646075     0.36100
C81         C  0.11387178  0.82284073  0.87107674     0.36100
C82         C  0.15986554  0.82300275  0.89344821     0.36100
C83         C  0.06977570  0.88541959  0.79080120    -0.21400
C84         C  0.06030856  0.86994664  0.81791644    -0.21400
C85         C  0.22788732  0.90798367  0.87986803    -0.21400
C86         C  0.22347187  0.88370260  0.90227257    -0.21400
C87         C  0.17519828  0.90304798  0.74709030    -0.22400
C88         C  0.20121803  0.91048122  0.76477547    -0.22400
C89         C  0.11455208  0.79705879  0.89115777    -0.22400
C90         C  0.14363762  0.79683624  0.90493128    -0.22400
C91         C  0.12091060  0.89041965  0.76261752    -0.17800
C92         C  0.08648310  0.83419022  0.85635233    -0.17800
C93         C  0.18973549  0.83403345  0.90431892    -0.17800
C94         C  0.20953433  0.91716356  0.82278642    -0.17800
H95         H  0.05547587  0.90141521  0.77686540     0.15100
H96         H  0.03716952  0.87126559  0.82851688     0.15100
H97         H  0.24173469  0.92914286  0.88331004     0.15100
H98         H  0.23265345  0.88329385  0.92630540     0.15100
H99         H  0.17179352  0.90731604  0.72192606     0.13400
H100        H  0.22232447  0.92168140  0.75595452     0.13400
H101        H  0.09570957  0.78053416  0.89590354     0.13400
H102        H  0.15082922  0.77958538  0.92221498     0.13400
H103        H  0.13276605  0.84709006  0.81174928     0.26700
H104        H  0.18401837  0.85875296  0.84171055     0.26700
N105        N  0.91165949  0.89795778  0.11326497    -0.36100
N106        N  0.92828830  0.85014683  0.15865400    -0.56600
N107        N  0.88594064  0.87842918  0.20626348    -0.36100
N108        N  0.87118303  0.92917474  0.15745066    -0.56600
C109        C  0.93504554  0.88322424  0.09791891     0.27500
C110        C  0.90576810  0.92510871  0.09766862     0.27500
C111        C  0.90635393  0.86153838  0.22494662     0.27500
C112        C  0.87167747  0.90196530  0.22350902     0.27500
C113        C  0.93487128  0.83523561  0.13095797     0.36100
C114        C  0.92619797  0.82752794  0.18119078     0.36100
C115        C  0.85919951  0.93676254  0.12869076     0.36100
C116        C  0.84632604  0.92526454  0.17678344     0.36100
C117        C  0.94509764  0.90177768  0.07254854    -0.21400
C118        C  0.92656721  0.92852738  0.07253106    -0.21400
C119        C  0.90470537  0.87448309  0.25536461    -0.21400
C120        C  0.88298178  0.89968577  0.25449947    -0.21400
C121        C  0.93706220  0.80297599  0.13571600    -0.22400
C122        C  0.93200816  0.79806464  0.16766801    -0.22400
C123        C  0.82678385  0.93781458  0.12968617    -0.22400
C124        C  0.81872089  0.93004272  0.16013572    -0.22400
C125        C  0.94127998  0.85091327  0.10210264    -0.17800
C126        C  0.87747888  0.94161814  0.10136798    -0.17800
C127        C  0.84892858  0.92422875  0.21012295    -0.17800
C128        C  0.92463462  0.83427643  0.21411041    -0.17800
H129        H  0.96210573  0.89557297  0.05444726     0.15100
H130        H  0.92631952  0.94674885  0.05441158     0.15100
H131        H  0.91769220  0.86663079  0.27605775     0.15100
H132        H  0.87660625  0.91467733  0.27435085     0.15100
H133        H  0.94296634  0.78507475  0.11829164     0.13400
H134        H  0.93310553  0.77537153  0.17944093     0.13400
H135        H  0.81067469  0.94307347  0.11047769     0.13400
H136        H  0.79530467  0.92964772  0.16972868     0.13400
H137        H  0.89714136  0.88747353  0.13013427     0.26700
H138        H  0.88104856  0.87356452  0.18246053     0.26700
N139        N  0.82428702  0.89747837  0.65009260    -0.36100
N140        N  0.88142302  0.91565851  0.61249985    -0.56600
N141        N  0.85520076  0.89574334  0.55290954    -0.36100
N142        N  0.80093306  0.87709892  0.59091099    -0.56600
C143        C  0.84695902  0.89624509  0.67221835     0.27500
C144        C  0.80184754  0.87675787  0.65904128     0.27500
C145        C  0.88532455  0.90212910  0.54412912     0.27500
C146        C  0.84357523  0.87098807  0.53551930     0.27500
C147        C  0.88676064  0.92704033  0.64214362     0.36100
C148        C  0.90056571  0.93208433  0.59260648     0.36100
C149        C  0.77474943  0.87839323  0.60857529     0.36100
C150        C  0.79189948  0.87324609  0.56071221     0.36100
C151        C  0.83825967  0.87596217  0.69665848    -0.21400
C152        C  0.80963620  0.86330502  0.68811127    -0.21400
C153        C  0.89289135  0.88183908  0.51923508    -0.21400
C154        C  0.86694751  0.86176118  0.51435832    -0.21400
C155        C  0.90942952  0.95052115  0.64113261    -0.22400
C156        C  0.91790371  0.95396947  0.60985933    -0.22400
C157        C  0.74858286  0.87597177  0.58949194    -0.22400
C158        C  0.75933416  0.87286727  0.55884930    -0.22400
C159        C  0.87489492  0.91350591  0.67054962    -0.17800
C160        C  0.77571920  0.86882299  0.64020068    -0.17800
C161        C  0.81200546  0.85842797  0.53914830    -0.17800
C162        C  0.90531765  0.92507986  0.55983223    -0.17800
H163        H  0.85155865  0.87020476  0.71785165     0.15100
H164        H  0.79645203  0.84578124  0.70132386     0.15100
H165        H  0.91514490  0.88065468  0.50683528     0.15100
H166        H  0.86539290  0.84296461  0.49695762     0.15100
H167        H  0.91941838  0.96338783  0.66095557     0.13400
H168        H  0.93578799  0.96994889  0.60112582     0.13400
H169        H  0.72489230  0.87259365  0.59767236     0.13400
H170        H  0.74521370  0.86684079  0.53828885     0.13400
H171        H  0.82448776  0.91174065  0.62982075     0.26700
H172        H  0.84298613  0.90851776  0.57009654     0.26700
N173        N  0.86169257  0.64723435  0.82800031    -0.36100
N174        N  0.84838302  0.59024326  0.79983427    -0.56600
N175        N  0.87119033  0.55244209  0.85473215    -0.36100
N176        N  0.88274015  0.61163248  0.88576829    -0.56600
C177        C  0.84239932  0.65602504  0.80399709     0.27500
C178        C  0.85692243  0.66763743  0.85196144     0.27500
C179        C  0.84813472  0.53354904  0.84217503     0.27500
C180        C  0.87858562  0.54290688  0.88490984     0.27500
C181        C  0.84851613  0.60811001  0.77341762     0.36100
C182        C  0.84819237  0.56018676  0.79044474     0.36100
C183        C  0.89043967  0.64192739  0.89251162     0.36100
C184        C  0.90148268  0.59327074  0.90415176     0.36100
C185        C  0.82567628  0.68281668  0.81262004    -0.21400
C186        C  0.83492039  0.69018280  0.84309473    -0.21400
C187        C  0.84094221  0.51090504  0.86504993    -0.21400
C188        C  0.86061666  0.51626769  0.89150330    -0.21400
C189        C  0.84881270  0.58936599  0.74647497    -0.22400
C190        C  0.84894430  0.55866616  0.75739747    -0.22400
C191        C  0.91393689  0.64288714  0.91528143    -0.22400
C192        C  0.92073473  0.61213777  0.92282001    -0.22400
C193        C  0.83956510  0.63972633  0.77488656    -0.17800
C194        C  0.87509409  0.66867625  0.87973118    -0.17800
C195        C  0.89954434  0.55987908  0.90628016    -0.17800
C196        C  0.83511306  0.53725407  0.81026256    -0.17800
H197        H  0.80860882  0.69563936  0.79854498     0.15100
H198        H  0.82684853  0.71012754  0.85702899     0.15100
H199        H  0.82369032  0.49226944  0.86285854     0.15100
H200        H  0.86042837  0.50309459  0.91361405     0.15100
H201        H  0.84649585  0.59700424  0.72197151     0.13400
H202        H  0.84656473  0.53756869  0.74307992     0.13400
H203        H  0.92472839  0.66354565  0.92579858     0.13400
H204        H  0.93720406  0.60460587  0.94084669     0.13400
H205        H  0.87849026  0.62928515  0.82769417     0.26700
H206        H  0.88196625  0.57131470  0.84313507     0.26700
N207        N  0.64384500  0.83545944  0.90037875    -0.36100
N208        N  0.59506161  0.81675065  0.85495744    -0.56600
N209        N  0.54547053  0.85058328  0.89031440    -0.36100
N210        N  0.59599548  0.87368327  0.93204778    -0.56600
C211        C  0.66216602  0.82547675  0.87622219     0.27500
C212        C  0.66166150  0.85464837  0.91856634     0.27500
C213        C  0.52870940  0.84099814  0.86427381     0.27500
C214        C  0.53065332  0.87547261  0.90503076     0.27500
C215        C  0.62046659  0.80257541  0.84159715     0.36100
C216        C  0.57004300  0.80744204  0.83738499     0.36100
C217        C  0.61926680  0.87220509  0.95379272     0.36100
C218        C  0.56968302  0.88059234  0.94839292     0.36100
C219        C  0.69239088  0.83708513  0.87992515    -0.21400
C220        C  0.69199243  0.85587468  0.90658574    -0.21400
C221        C  0.50184355  0.85958622  0.86290650    -0.21400
C222        C  0.50332121  0.88149314  0.88802229    -0.21400
C223        C  0.61163184  0.78518855  0.81520638    -0.22400
C224        C  0.58016288  0.78833140  0.81245827    -0.22400
C225        C  0.60811755  0.87845037  0.98400771    -0.22400
C226        C  0.57641575  0.88292247  0.98075011    -0.22400
C227        C  0.65216785  0.80671877  0.85061913    -0.17800
C228        C  0.65094982  0.87120927  0.94549125    -0.17800
C229        C  0.54178195  0.89140196  0.93374046    -0.17800
C230        C  0.53818162  0.81669957  0.84163403    -0.17800
H231        H  0.71241448  0.83321365  0.86451931     0.15100
H232        H  0.71170897  0.86907719  0.91591568     0.15100
H233        H  0.48357386  0.85826600  0.84505102     0.15100
H234        H  0.48604565  0.89952528  0.89319313     0.15100
H235        H  0.62626996  0.77199188  0.79886625     0.13400
H236        H  0.56654610  0.77795100  0.79339272     0.13400
H237        H  0.62158051  0.88035414  0.00579597     0.13400
H238        H  0.56032277  0.88904904  0.99972011     0.13400
H239        H  0.62052186  0.82942957  0.90436243     0.26700
H240        H  0.56603120  0.83992778  0.89805371     0.26700
N241        N  0.88341122  0.10456073  0.84159240    -0.36100
N242        N  0.83970213  0.14624738  0.87596662    -0.56600
N243        N  0.88177592  0.20000505  0.86397783    -0.36100
N244        N  0.92247535  0.15704615  0.82595208    -0.56600
C245        C  0.85824545  0.08555358  0.84415458     0.27500
C246        C  0.90306523  0.09128928  0.82017951     0.27500
C247        C  0.85651914  0.21480797  0.87759992     0.27500
C248        C  0.89826565  0.22078311  0.84522523     0.27500
C249        C  0.82916232  0.11715768  0.88447688     0.36100
C250        C  0.82946008  0.16649221  0.89876953     0.36100
C251        C  0.94279045  0.13303906  0.82160933     0.36100
C252        C  0.94009746  0.18294707  0.83039685     0.36100
C253        C  0.86173531  0.05977139  0.82402056    -0.21400
C254        C  0.89016678  0.06344961  0.80873466    -0.21400
C255        C  0.85746454  0.24624619  0.86800516    -0.21400
C256        C  0.88323189  0.24984941  0.84732621    -0.21400
C257        C  0.81185215  0.11907446  0.91236790    -0.22400
C258        C  0.81210029  0.15009675  0.92142383    -0.22400
C259        C  0.97346682  0.14346734  0.82301029    -0.22400
C260        C  0.97183667  0.17522932  0.82867659    -0.22400
C261        C  0.83492125  0.08864400  0.86766904    -0.17800
C262        C  0.93352368  0.10245333  0.81357172    -0.17800
C263        C  0.92752502  0.21352531  0.82869075    -0.17800
C264        C  0.83358902  0.19984721  0.89858980    -0.17800
H265        H  0.84600311  0.03982311  0.82162577     0.15100
H266        H  0.90063432  0.04701986  0.79204748     0.15100
H267        H  0.84109445  0.26461299  0.87481141     0.15100
H268        H  0.89053386  0.27160187  0.83595525     0.15100
H269        H  0.80048409  0.10007929  0.92522338     0.13400
H270        H  0.80076202  0.15941368  0.94251040     0.13400
H271        H  0.99468483  0.12972906  0.81981161     0.13400
H272        H  0.99191975  0.19066352  0.83088060     0.13400
H273        H  0.88825418  0.12384212  0.85607061     0.26700
H274        H  0.88812855  0.17669932  0.86836495     0.26700
O275        O  0.27424777  0.42432146  0.21306508    -0.78000
C276        C  0.21431036  0.42973398  0.29892690     0.83100
O277        O  0.17725660  0.49779326  0.18079269    -0.79100
O278        O  0.20104893  0.53999000  0.29034420    -0.80600
O279        O  0.30771883  0.51772627  0.27032571    -0.80400
O280        O  0.31074364  0.46143603  0.21636293    -0.79000
Zn281      Zn  0.23199111  0.44848062  0.22789584     1.55700
O282        O  0.27708825  0.51429003  0.31288623    -0.80400
Cd283      Cd  0.28358635  0.50186909  0.22969471     1.59700
Cd284      Cd  0.20844871  0.52370788  0.21183521     1.59600
O285        O  0.28147843  0.53822198  0.19472705    -0.80400
O286        O  0.23840046  0.49336795  0.23952202    -1.90900
Cd287      Cd  0.23361525  0.50064143  0.28811892     1.59900
O288        O  0.23407789  0.55619154  0.18204157    -0.80300
O289        O  0.21808928  0.45754568  0.31066212    -0.79000
C290        C  0.17618276  0.46782169  0.17645034     0.83500
C291        C  0.30332270  0.43257331  0.21117896     0.83200
O292        O  0.21866937  0.42460865  0.26905973    -0.77900
C293        C  0.30395071  0.52062365  0.30051315     0.84000
O294        O  0.19496159  0.44973333  0.19272980    -0.78000
C295        C  0.26389684  0.55786406  0.17925147     0.84100
C296        C  0.18491030  0.55910636  0.27248738     0.84500
O297        O  0.18286643  0.55491905  0.24233025    -0.80500
O298        O  0.27723883  0.18422821  0.53416542    -0.78000
C299        C  0.19422552  0.18013735  0.47222336     0.83100
O300        O  0.31220629  0.25194366  0.43597436    -0.79100
O301        O  0.20843757  0.28499144  0.44195399    -0.80600
O302        O  0.21010651  0.27855183  0.56165540    -0.80400
O303        O  0.26757784  0.22130251  0.57068137    -0.79000
Zn304      Zn  0.26322969  0.20351387  0.48985379     1.55700
O305        O  0.17851173  0.27067482  0.52033868    -0.80400
Cd306      Cd  0.25447850  0.26134323  0.54222022     1.59700
Cd307      Cd  0.28191124  0.27864607  0.46686112     1.59600
O308        O  0.29167254  0.29646241  0.54302607    -0.80400
O309        O  0.25201846  0.24889484  0.49519418    -1.90900
Cd310      Cd  0.20624993  0.25308216  0.48237103     1.59900
O311        O  0.31047670  0.30964362  0.49524070    -0.80300
O312        O  0.18347340  0.20849811  0.47206892    -0.79000
C313        C  0.31380305  0.22195796  0.43239938     0.83500
C314        C  0.27685683  0.19331082  0.56348118     0.83200
O315        O  0.22352229  0.17554427  0.47804792    -0.77900
C316        C  0.18255898  0.27983010  0.54914004     0.84000
O317        O  0.29790874  0.20348270  0.45139632    -0.78000
C318        C  0.31081369  0.31293785  0.52558251     0.84100
C319        C  0.22704060  0.30306893  0.42545306     0.84500
O320        O  0.25589208  0.30617753  0.43322449    -0.80500
O321        O  0.50965059  0.77072934  0.82412502    -0.78000
C322        C  0.42319323  0.71522631  0.81227495     0.83100
O323        O  0.54804012  0.68422798  0.74769363    -0.79100
O324        O  0.43893467  0.69983719  0.70547959    -0.80600
O325        O  0.45654697  0.81643571  0.73677538    -0.80400
O326        O  0.51449175  0.81028298  0.78963636    -0.79000
Zn327      Zn  0.49451304  0.73087653  0.79766248     1.55700
O328        O  0.41775908  0.78188032  0.73011280    -0.80400
Cd329      Cd  0.49746637  0.78861513  0.74682535     1.59700
Cd330      Cd  0.51553907  0.71340279  0.72224014     1.59600
O331        O  0.53057612  0.78891708  0.70716036    -0.80400
O332        O  0.48692843  0.74203221  0.75246240    -1.90900
Cd333      Cd  0.44001261  0.73692829  0.74213570     1.59900
O334        O  0.54284762  0.74058123  0.68936442    -0.80300
O335        O  0.41435319  0.72185754  0.78379112    -0.79000
C336        C  0.55028684  0.68065741  0.77783345     0.83500
C337        C  0.51679610  0.79968056  0.81817927     0.83200
O338        O  0.45241966  0.71667092  0.81982472    -0.77900
C339        C  0.42762722  0.81070976  0.73061064     0.84000
O340        O  0.53106695  0.69558302  0.79666343    -0.78000
C341        C  0.54525495  0.77063495  0.68721644     0.84100
C342        C  0.45767394  0.67989055  0.69148328     0.84500
O343        O  0.48742385  0.68194269  0.69510619    -0.80500
O344        O  0.16604578  0.72801526  0.98079830    -0.78000
C345        C  0.18009008  0.78730700  0.06499053     0.83100
O346        O  0.23483342  0.81264868  0.93335379    -0.79100
O347        O  0.28540731  0.80336870  0.04067420    -0.80600
O348        O  0.25576170  0.68585902  0.03149708    -0.80400
O349        O  0.20054922  0.68927787  0.97278200    -0.79000
Zn350      Zn  0.19119721  0.76896760  0.99264734     1.55700
O351        O  0.26240450  0.72365816  0.06780969    -0.80400
Cd352      Cd  0.24279110  0.71184075  0.98948273     1.59700
Cd353      Cd  0.26331329  0.78678980  0.96624270     1.59600
O354        O  0.28207363  0.71152955  0.95678238    -0.80400
O355        O  0.23619148  0.75892872  0.99814194    -1.90900
Cd356      Cd  0.24870205  0.76706703  0.04444350     1.59900
O357        O  0.29629433  0.75979066  0.94027955    -0.80300
O358        O  0.20895018  0.78289515  0.07278201    -0.79000
C359        C  0.20501978  0.81651751  0.93270300     0.83500
C360        C  0.17209843  0.69942004  0.97253998     0.83200
O361        O  0.17140378  0.78349494  0.03592051    -0.77900
C362        C  0.26324336  0.69424800  0.05985859     0.84000
O363        O  0.18770859  0.80317827  0.95431246    -0.78000
C364        C  0.30078934  0.73000961  0.94098946     0.84100
C365        C  0.29823387  0.82237661  0.01994496     0.84500
O366        O  0.29199745  0.81991426  0.99030709    -0.80500
O367        O  0.00617581  0.48685532  0.92511875    -0.78000
C368        C  0.92040488  0.54524037  0.93202958     0.83100
O369        O  0.03851614  0.57726705  0.00044537    -0.79100
O370        O  0.93658198  0.55914329  0.04647658    -0.80600
O371        O  0.94292113  0.44477207  0.01013763    -0.80400
O372        O  0.00184071  0.44582943  0.95774495    -0.79000
Zn373      Zn  0.98992194  0.52602732  0.95000215     1.55700
O374        O  0.90955185  0.48524165  0.01056735    -0.80400
Cd375      Cd  0.98679992  0.46895088  0.00052817     1.59700
Cd376      Cd  0.01173247  0.54271278  0.02646832     1.59600
O377        O  0.02431760  0.46623948  0.03563611    -0.80400
O378        O  0.98133886  0.51673260  0.99527012    -1.90900
Cd379      Cd  0.93561129  0.52811965  0.00374257     1.59900
O380        O  0.04490275  0.51259533  0.05039318    -0.80300
O381        O  0.91187011  0.54540267  0.96146756    -0.79000
C382        C  0.03962279  0.58112672  0.97018335     0.83500
C383        C  0.00880509  0.45711712  0.93033483     0.83200
O384        O  0.94892437  0.53851913  0.92486436    -0.77900
C385        C  0.91464658  0.45527801  0.01199175     0.84000
O386        O  0.02358486  0.56277761  0.95157981    -0.78000
C387        C  0.04522601  0.48235978  0.05138604     0.84100
C388        C  0.95607052  0.57062764  0.06746456     0.84500
O389        O  0.98573018  0.56684549  0.06349962    -0.80500
O390        O  0.28164047  0.08481702  0.72978377    -0.78000
C391        C  0.19377869  0.08104686  0.78414101     0.83100
O392        O  0.30704051  0.01040260  0.82710070    -0.79100
O393        O  0.20475546  0.96945375  0.80047864    -0.80600
O394        O  0.22662211  0.99405320  0.69094183    -0.80400
O395        O  0.28011736  0.04925936  0.69088412    -0.79000
Zn396      Zn  0.26514772  0.06132711  0.77113692     1.55700
O397        O  0.18548860  0.99610270  0.72374603    -0.80400
Cd398      Cd  0.26721010  0.00748274  0.71646930     1.59700
Cd399      Cd  0.28152415  0.98588064  0.79217095     1.59600
O400        O  0.30512743  0.97207817  0.71834269    -0.80400
O401        O  0.25531115  0.01648513  0.76229062    -1.90900
Cd402      Cd  0.20768858  0.00958064  0.76786485     1.59900
O403        O  0.31524025  0.95744256  0.76847178    -0.80300
O404        O  0.18321637  0.05273219  0.78102626    -0.79000
C405        C  0.31047479  0.04009083  0.83081233     0.83500
C406        C  0.28468946  0.07773896  0.70011345     0.83200
O407        O  0.22343877  0.08626280  0.78157405    -0.77900
C408        C  0.19704564  0.99078772  0.69603158     0.84000
O409        O  0.29728796  0.05992658  0.81120079    -0.78000
C410        C  0.32135495  0.95564200  0.73880715     0.84100
C411        C  0.22300194  0.94941280  0.81496350     0.84500
O412        O  0.25269597  0.95304768  0.81552427    -0.80500
O413        O  0.66814143  0.73650270  0.48646201    -0.78000
C414        C  0.67995193  0.79047286  0.57008711     0.83100
O415        O  0.73797441  0.81971570  0.43921556    -0.79100
O416        O  0.78393681  0.80925113  0.54687751    -0.80600
O417        O  0.75933885  0.69015158  0.53292608    -0.80400
O418        O  0.69728587  0.69398966  0.47846097    -0.79000
Zn419      Zn  0.69381985  0.77594178  0.49816182     1.55700
O420        O  0.76651533  0.72695211  0.57042779    -0.80400
Cd421      Cd  0.74259788  0.71606333  0.49144254     1.59700
Cd422      Cd  0.76555302  0.79162970  0.47111129     1.59600
O423        O  0.78014813  0.71581539  0.45527524    -0.80400
O424        O  0.73804949  0.76342973  0.50255290    -1.90900
Cd425      Cd  0.74954875  0.77068820  0.54940523     1.59900
O426        O  0.79795113  0.76457373  0.44425827    -0.80300
O427        O  0.70850464  0.78428585  0.57815263    -0.79000
C428        C  0.70850563  0.82547041  0.44044898     0.83500
C429        C  0.67000530  0.70718900  0.47915598     0.83200
O430        O  0.67221278  0.78942283  0.54062599    -0.77900
C431        C  0.76795281  0.69783765  0.56132203     0.84000
O432        O  0.69176706  0.81151727  0.46193399    -0.78000
C433        C  0.80047148  0.73461749  0.44174816     0.84100
C434        C  0.79776287  0.82782909  0.52646868     0.84500
O435        O  0.79385522  0.82419409  0.49652731    -0.80500
O436        O  0.02467487  0.78027270  0.33653334    -0.78000
C437        C  0.93859694  0.72556563  0.32654334     0.83100
O438        O  0.06550166  0.69259342  0.26675643    -0.79100
O439        O  0.96008889  0.70059329  0.22265890    -0.80600
O440        O  0.97364845  0.82063657  0.24099626    -0.80400
O441        O  0.03088394  0.81885098  0.30104757    -0.79000
Zn442      Zn  0.01038615  0.73994809  0.31195205     1.55700
O443        O  0.93677633  0.78324965  0.23755289    -0.80400
Cd444      Cd  0.01508769  0.79524005  0.25762664     1.59700
Cd445      Cd  0.03391948  0.71881699  0.23861860     1.59600
O446        O  0.04970695  0.79285989  0.21896318    -0.80400
O447        O  0.00442032  0.74878295  0.26612708    -1.90900
Cd448      Cd  0.95816445  0.74067364  0.25562452     1.59900
O449        O  0.06081425  0.74304881  0.20460859    -0.80300
O450        O  0.93013720  0.72871787  0.29734311    -0.79000
C451        C  0.06651251  0.68920153  0.29693967     0.83500
C452        C  0.03217251  0.80892226  0.33008547     0.83200
O453        O  0.96760565  0.72931957  0.33408740    -0.77900
C454        C  0.94537514  0.81224594  0.23403446     0.84000
O455        O  0.04625553  0.70371657  0.31486403    -0.78000
C456        C  0.06328125  0.77266437  0.19998409     0.84100
C457        C  0.97955016  0.68156913  0.20846366     0.84500
O458        O  0.00908120  0.68523123  0.21139666    -0.80500
O459        O  0.57526180  0.01348606  0.98405315    -0.78000
C460        C  0.56910236  0.96030591  0.07117389     0.83100
O461        O  0.49805236  0.92652087  0.95072119    -0.79100
O462        O  0.45889720  0.94746253  0.05722991    -0.80600
O463        O  0.49051141  0.06253474  0.04000312    -0.80400
O464        O  0.54734139  0.05710449  0.97907741    -0.79000
Zn465      Zn  0.54982676  0.97561621  0.00016023     1.55700
O466        O  0.48991914  0.02473475  0.07715038    -0.80400
Cd467      Cd  0.50316757  0.03653053  0.99721810     1.59700
Cd468      Cd  0.47400042  0.96132753  0.97976519     1.59600
O469        O  0.46339214  0.03927378  0.96459237    -0.80400
O470        O  0.50624843  0.98854056  0.00767120    -1.90900
Cd471      Cd  0.49927021  0.98026971  0.05505822     1.59900
O472        O  0.44350850  0.99161229  0.95245097    -0.80300
O473        O  0.54075142  0.96455091  0.08077376    -0.79000
C474        C  0.52761261  0.92060964  0.95044422     0.83500
C475        C  0.57382772  0.04266384  0.97640451     0.83200
O476        O  0.57527930  0.96293809  0.04138894    -0.77900
C477        C  0.48609035  0.05379606  0.06906330     0.84000
O478        O  0.54656985  0.93810749  0.96692444    -0.78000
C479        C  0.44197816  0.02188122  0.95119911     0.84100
C480        C  0.43855335  0.93309728  0.03924207     0.84500
O481        O  0.44110054  0.93539401  0.00889432    -0.80500
C482        C  0.25176532  0.71492695  0.24581601     0.80800
N483        N  0.24772597  0.72841589  0.21661587    -0.77600
C484        C  0.23286053  0.75688207  0.21374171     0.83200
N485        N  0.22336550  0.77210425  0.24048194    -0.77500
C486        C  0.22786731  0.75937901  0.26964039     0.83300
N487        N  0.24172664  0.73080754  0.27198266    -0.79200
N488        N  0.38788646  0.64129820  0.32442735    -0.36100
N489        N  0.40116100  0.60704914  0.38444160    -0.56600
N490        N  0.36523652  0.55147535  0.36377551    -0.36100
N491        N  0.33347127  0.58462309  0.28905097    -0.56600
C492        C  0.39759764  0.66582668  0.34224668     0.27500
C493        C  0.37406515  0.65328718  0.29802215     0.27500
C494        C  0.37912268  0.53860417  0.39004572     0.27500
C495        C  0.34535205  0.53029878  0.34956149     0.27500
C496        C  0.41355215  0.63569785  0.39157429     0.36100
C497        C  0.40947333  0.58709359  0.40825447     0.36100
C498        C  0.35730554  0.60252642  0.27813340     0.36100
C499        C  0.34705027  0.55783653  0.29939466     0.36100
C500        C  0.39123070  0.69388739  0.32611724    -0.21400
C501        C  0.37585705  0.68591632  0.29839989    -0.21400
C502        C  0.36692288  0.50816160  0.39313999    -0.21400
C503        C  0.34521546  0.50323053  0.36820453    -0.21400
C504        C  0.42931115  0.63412745  0.42037590    -0.22400
C505        C  0.42708859  0.60353130  0.43070657    -0.22400
C506        C  0.38555871  0.58630682  0.27958857    -0.22400
C507        C  0.37905594  0.55785508  0.29368985    -0.22400
C508        C  0.41031016  0.66380574  0.37335274    -0.17800
C509        C  0.35489299  0.63535326  0.27746480    -0.17800
C510        C  0.33117107  0.53609672  0.31854169    -0.17800
C511        C  0.40249647  0.55409090  0.41028577    -0.17800
H512        H  0.39564837  0.71776011  0.33420725     0.15100
H513        H  0.36575876  0.70217501  0.28131306     0.15100
H514        H  0.37291344  0.49123583  0.41149903     0.15100
H515        H  0.33243748  0.48165173  0.36344806     0.15100
H516        H  0.44142888  0.65300765  0.43265992     0.13400
H517        H  0.43704894  0.59457521  0.45265222     0.13400
H518        H  0.40871446  0.59563656  0.27461906     0.13400
H519        H  0.39594915  0.54013923  0.30094656     0.13400
H520        H  0.38848954  0.61768961  0.33090725     0.26700
H521        H  0.36945606  0.57381785  0.35466431     0.26700
C522        C  0.51541410  0.96363454  0.23584596     0.80800
N523        N  0.50471696  0.99139052  0.24818766    -0.77600
C524        C  0.47441799  0.99355293  0.25817147     0.83200
N525        N  0.45533602  0.96808912  0.25637199    -0.77500
C526        C  0.46587119  0.94030324  0.24498550     0.83300
N527        N  0.49576575  0.93851907  0.23455734    -0.79200
N528        N  0.60867215  0.89870442  0.34157303    -0.36100
N529        N  0.66455654  0.90602795  0.31099024    -0.56600
N530        N  0.70091726  0.87558461  0.36398730    -0.36100
N531        N  0.64260547  0.87181584  0.39821623    -0.56600
C532        C  0.60032925  0.91770773  0.31713884     0.27500
C533        C  0.58813672  0.90351593  0.36514341     0.27500
C534        C  0.72198353  0.89608923  0.35047877     0.27500
C535        C  0.71079213  0.86697444  0.39361497     0.27500
C536        C  0.64603992  0.90641587  0.28528336     0.36100
C537        C  0.69322889  0.89892031  0.30098374     0.36100
C538        C  0.61168725  0.86606452  0.40385703     0.36100
C539        C  0.65915109  0.84933500  0.41436854     0.36100
C540        C  0.57368818  0.93476815  0.32520267    -0.21400
C541        C  0.56597172  0.92576800  0.35581717    -0.21400
C542        C  0.74632897  0.90030389  0.37199178    -0.21400
C543        C  0.73971788  0.88138077  0.39872434    -0.21400
C544        C  0.66287019  0.89994167  0.25796798    -0.22400
C545        C  0.69310068  0.89501528  0.26822863    -0.22400
C546        C  0.60849041  0.84026719  0.42367124    -0.22400
C547        C  0.63807716  0.82981271  0.43030920    -0.22400
C548        C  0.61561101  0.91754014  0.28740781    -0.17800
C549        C  0.58596939  0.88375472  0.39175904    -0.17800
C550        C  0.69287199  0.84752248  0.41562746    -0.17800
C551        C  0.71851154  0.90936428  0.31884374    -0.17800
H552        H  0.56067714  0.95116439  0.31046409     0.15100
H553        H  0.54559761  0.93348280  0.36915126     0.15100
H554        H  0.76693192  0.91487991  0.36863990     0.15100
H555        H  0.75393022  0.87967279  0.42001199     0.15100
H556        H  0.65469279  0.90023736  0.23355056     0.13400
H557        H  0.71312067  0.89104012  0.25348714     0.13400
H558        H  0.58699935  0.82943808  0.43204841     0.13400
H559        H  0.64227156  0.80920521  0.44453407     0.13400
H560        H  0.62562455  0.88094276  0.34139112     0.26700
H561        H  0.68042726  0.86730247  0.35331411     0.26700
N562        N  0.33360957  0.87262658  0.14413196    -0.36100
N563        N  0.30470606  0.86330631  0.08656881    -0.56600
N564        N  0.35865800  0.88755746  0.04727670    -0.36100
N565        N  0.39054654  0.89525670  0.10602962    -0.56600
C566        C  0.31049965  0.85256705  0.15284202     0.27500
C567        C  0.35751560  0.86793985  0.16425423     0.27500
C568        C  0.34537764  0.86458774  0.02856797     0.27500
C569        C  0.38872374  0.89392395  0.03755138     0.27500
C570        C  0.27929783  0.86050116  0.10523665     0.36100
C571        C  0.29471840  0.86552992  0.05661328     0.36100
C572        C  0.39490113  0.90337507  0.13691155     0.36100
C573        C  0.40617246  0.91709911  0.08827542     0.36100
C574        C  0.31944224  0.83601588  0.17994701    -0.21400
C575        C  0.34939628  0.84578759  0.18715609    -0.21400
C576        C  0.36757196  0.85640289  0.00569801    -0.21400
C577        C  0.39440505  0.87529498  0.01083911    -0.21400
C578        C  0.25220273  0.86139570  0.08722812    -0.22400
C579        C  0.26195502  0.86522924  0.05620046    -0.22400
C580        C  0.41305758  0.93027030  0.13905068    -0.22400
C581        C  0.41955774  0.93935070  0.10849149    -0.22400
C582        C  0.28214696  0.84856714  0.13600100    -0.17800
C583        C  0.38535312  0.88516109  0.16338672    -0.17800
C584        C  0.41050123  0.91472938  0.05453063    -0.17800
C585        C  0.31349954  0.85250215  0.03274370    -0.17800
H586        H  0.30600127  0.81857577  0.19298934     0.15100
H587        H  0.36357358  0.83758904  0.20690199     0.15100
H588        H  0.36471345  0.83896766  0.98706886     0.15100
H589        H  0.41607286  0.87416147  0.99741393     0.15100
H590        H  0.22845326  0.85682795  0.09518514     0.13400
H591        H  0.24708540  0.86309507  0.03539271     0.13400
H592        H  0.42056348  0.94231003  0.16049522     0.13400
H593        H  0.43250573  0.96028967  0.10272229     0.13400
H594        H  0.33333724  0.88942821  0.12596825     0.26700
H595        H  0.34751677  0.89880807  0.06627326     0.26700
C596        C  0.23973911  0.98457842  0.50870639     0.80800
N597        N  0.24585073  0.00454164  0.48425655    -0.77600
C598        C  0.26805670  0.02707564  0.48685166     0.83200
N599        N  0.28437883  0.02941121  0.51440248    -0.77500
C600        C  0.27879446  0.00963206  0.53908594     0.83300
N601        N  0.25666585  0.98662079  0.53600609    -0.79200
C602        C  0.43896947  0.81592787  0.47788337     0.80800
N603        N  0.42892151  0.78940995  0.46282175    -0.77600
C604        C  0.43960282  0.78257153  0.43306189     0.83200
N605        N  0.46085266  0.80190520  0.41885073    -0.77500
C606        C  0.47049840  0.82868546  0.43354084     0.83300
N607        N  0.45938541  0.83531400  0.46283698    -0.79200
N608        N  0.38978446  0.91367245  0.61942844    -0.36100
N609        N  0.36974109  0.94480280  0.67441945    -0.56600
N610        N  0.38440442  0.89065354  0.71633977    -0.36100
N611        N  0.40033533  0.85635546  0.65917291    -0.56600
C612        C  0.37436540  0.93878133  0.60705712     0.27500
C613        C  0.38771504  0.89028667  0.59792320     0.27500
C614        C  0.36172378  0.90624159  0.73356290     0.27500
C615        C  0.38946839  0.86109418  0.72853430     0.27500
C616        C  0.37480124  0.96985607  0.65554850     0.36100
C617        C  0.36679002  0.95589671  0.70399743     0.36100
C618        C  0.40970111  0.84630012  0.63007414     0.36100
C619        C  0.41326646  0.83598279  0.68029337     0.36100
C620        C  0.36314270  0.93137137  0.57692326    -0.21400
C621        C  0.37197702  0.90073629  0.57100633    -0.21400
C622        C  0.35251199  0.88606029  0.75796934    -0.21400
C623        C  0.37047895  0.85817275  0.75533555    -0.21400
C624        C  0.37521960  0.99745673  0.67306046    -0.22400
C625        C  0.37024568  0.98854583  0.70417150    -0.22400
C626        C  0.42757266  0.81916335  0.63247934    -0.22400
C627        C  0.43008877  0.81273792  0.66414790    -0.22400
C628        C  0.36983370  0.96779523  0.62292547    -0.17800
C629        C  0.40183930  0.86058469  0.60098392    -0.17800
C630        C  0.40907353  0.83679859  0.71382327    -0.17800
C631        C  0.35085492  0.93837963  0.72699878    -0.17800
H632        H  0.34984247  0.94623993  0.56087856     0.15100
H633        H  0.36711503  0.88748931  0.54950670     0.15100
H634        H  0.33508908  0.89098988  0.77607403     0.15100
H635        H  0.36848049  0.83752533  0.77042823     0.15100
H636        H  0.37652010  0.02132098  0.66389599     0.13400
H637        H  0.36670888  0.00422691  0.72422625     0.13400
H638        H  0.43812434  0.80558442  0.61341397     0.13400
H639        H  0.44280567  0.79284018  0.67392755     0.13400
H640        H  0.40205873  0.91261972  0.64086083     0.26700
H641        H  0.39646600  0.89979819  0.69687108     0.26700
N642        N  0.36046046  0.10462227  0.34603878    -0.36100
N643        N  0.40526052  0.15238865  0.32559647    -0.56600
N644        N  0.37148258  0.20311583  0.35986038    -0.36100
N645        N  0.33007657  0.15383932  0.38277195    -0.56600
C646        C  0.38531827  0.08669733  0.33817693     0.27500
C647        C  0.34351618  0.08800830  0.36726845     0.27500
C648        C  0.39811077  0.21838480  0.35007760     0.27500
C649        C  0.35904372  0.21740140  0.38652922     0.27500
C650        C  0.41315773  0.12717518  0.30739342     0.36100
C651        C  0.41684849  0.17789764  0.31030853     0.36100
C652        C  0.30806484  0.13114961  0.38035410     0.36100
C653        C  0.31486178  0.18030338  0.39133502     0.36100
C654        C  0.38381312  0.05780866  0.35369492    -0.21400
C655        C  0.35730309  0.05875180  0.37251383    -0.21400
C656        C  0.40240773  0.24386932  0.37051929    -0.21400
C657        C  0.37828528  0.24300455  0.39352879    -0.21400
C658        C  0.42971118  0.13630385  0.28071741    -0.22400
C659        C  0.43203418  0.16829537  0.28235566    -0.22400
C660        C  0.27867900  0.14302710  0.38741024    -0.22400
C661        C  0.28293035  0.17450068  0.39378014    -0.22400
C662        C  0.40809278  0.09566032  0.31600135    -0.17800
C663        C  0.31596613  0.09922157  0.38153764    -0.17800
C664        C  0.33037980  0.20722720  0.40302964    -0.17800
C665        C  0.41757178  0.20904239  0.32296323    -0.17800
H666        H  0.40022061  0.03834509  0.35184080     0.15100
H667        H  0.34910423  0.04012707  0.38812969     0.15100
H668        H  0.42131763  0.26091405  0.36947098     0.15100
H669        H  0.37524962  0.25950828  0.41297335     0.15100
H670        H  0.43970935  0.12140163  0.26235530     0.13400
H671        H  0.44475139  0.18238878  0.26516676     0.13400
H672        H  0.25706007  0.12980677  0.38979328     0.13400
H673        H  0.26508692  0.19100720  0.40128918     0.13400
H674        H  0.35479690  0.12671985  0.33666577     0.26700
H675        H  0.36182568  0.18402773  0.34776794     0.26700
N676        N  0.15351540  0.85039502  0.41888099    -0.36100
N677        N  0.10244663  0.88491987  0.44923731    -0.56600
N678        N  0.05588722  0.86046842  0.40403134    -0.36100
N679        N  0.10767001  0.82755455  0.37190268    -0.56600
C680        C  0.16958024  0.87206707  0.43592981     0.27500
C681        C  0.17266711  0.84069299  0.39527661     0.27500
C682        C  0.03877287  0.88378719  0.41876384     0.27500
C683        C  0.04068438  0.85024227  0.37712764     0.27500
C684        C  0.12587204  0.88793134  0.47072434     0.36100
C685        C  0.07589472  0.89387469  0.46426473     0.36100
C686        C  0.13354217  0.81086494  0.36340062     0.36100
C687        C  0.08351406  0.81505945  0.35514652     0.36100
C688        C  0.19948550  0.87572047  0.42337861    -0.21400
C689        C  0.20158627  0.85549273  0.39787345    -0.21400
C690        C  0.01154553  0.88796381  0.40102237    -0.21400
C691        C  0.01258383  0.86680880  0.37526597    -0.21400
C692        C  0.11447831  0.89845023  0.49956794    -0.22400
C693        C  0.08301715  0.90244183  0.49559638    -0.22400
C694        C  0.12585216  0.78804603  0.34111436    -0.22400
C695        C  0.09457713  0.79077443  0.33575290    -0.22400
C696        C  0.15779752  0.88814622  0.46270406    -0.17800
C697        C  0.16472645  0.81841320  0.37190415    -0.17800
C698        C  0.05196255  0.82620096  0.35492312    -0.17800
C699        C  0.04699203  0.89981738  0.44848016    -0.17800
H700        H  0.21789378  0.89130611  0.43163373     0.15100
H701        H  0.22191810  0.85247322  0.38269888     0.15100
H702        H  0.99260942  0.90419803  0.40631943     0.15100
H703        H  0.99479978  0.86423193  0.35704857     0.15100
H704        H  0.12782307  0.90450349  0.52065700     0.13400
H705        H  0.06801725  0.91191127  0.51394633     0.13400
H706        H  0.14118618  0.77174554  0.32880549     0.13400
H707        H  0.08185481  0.77673746  0.31852665     0.13400
H708        H  0.13102208  0.84197629  0.42353710     0.26700
H709        H  0.07674970  0.85112727  0.41253219     0.26700
O710        O  0.77895889  0.08175949  0.22268491    -0.78000
C711        C  0.69028832  0.06280325  0.27639033     0.83100
O712        O  0.81800149  0.00485377  0.31405894    -0.79100
O713        O  0.71584632  0.95606712  0.28574620    -0.80600
O714        O  0.73835122  0.98908713  0.17681882    -0.80400
O715        O  0.78966749  0.04724217  0.18427172    -0.79000
Zn716      Zn  0.76413060  0.05449885  0.26380785     1.55700
O717        O  0.69621938  0.98364361  0.20749313    -0.80400
Cd718      Cd  0.77607237  0.00393374  0.20652843     1.59700
Cd719      Cd  0.78985452  0.97834845  0.28192554     1.59600
O720        O  0.81291231  0.96893556  0.20887450    -0.80400
O721        O  0.76162052  0.00877377  0.25215741    -1.90900
Cd722      Cd  0.71563764  0.99583306  0.25329393     1.59900
O723        O  0.82173865  0.94806209  0.25660338    -0.80300
O724        O  0.68619733  0.03405624  0.26754226    -0.79000
C725        C  0.81840345  0.03479756  0.31798454     0.83500
C726        C  0.78807299  0.07593673  0.19387421     0.83200
O727        O  0.71846048  0.07411175  0.27766723    -0.77900
C728        C  0.70903790  0.98266806  0.17987958     0.84000
O729        O  0.79938795  0.05265623  0.30147880    -0.78000
C730        C  0.82731041  0.94853139  0.22674060     0.84100
C731        C  0.73331141  0.93899906  0.30444115     0.84500
O732        O  0.76235186  0.94543577  0.30819162    -0.80500
O733        O  0.81986154  0.22154975  0.95044684    -0.78000
C734        C  0.81039983  0.30897673  0.00857467     0.83100
O735        O  0.75432154  0.18841323  0.05117704    -0.79100
O736        O  0.70713919  0.28715085  0.03361201    -0.80600
O737        O  0.72279084  0.27485446  0.91537258    -0.80400
O738        O  0.78232041  0.22036509  0.91358570    -0.79000
Zn739      Zn  0.79678713  0.23712713  0.99236949     1.55700
O740        O  0.72359804  0.31206839  0.95296747    -0.80400
Cd741      Cd  0.74040261  0.23342257  0.93966262     1.59700
Cd742      Cd  0.72480414  0.21235037  0.01720626     1.59600
O743        O  0.70736106  0.19403338  0.94185897    -0.80400
O744        O  0.75085761  0.24261655  0.98609259    -1.90900
Cd745      Cd  0.74040725  0.28885105  0.99451659     1.59900
O746        O  0.69881366  0.17731278  0.99179781    -0.80300
O747        O  0.78123572  0.31636729  0.00665908    -0.79000
C748        C  0.78427662  0.18933504  0.05293350     0.83500
C749        C  0.81134750  0.21701466  0.92141511     0.83200
O750        O  0.81898960  0.28026852  0.00366236    -0.77900
C751        C  0.71850961  0.30369545  0.92406893     0.84000
O752        O  0.79986964  0.20534005  0.03181648    -0.78000
C753        C  0.69503134  0.17395702  0.96173237     0.84100
C754        C  0.69223639  0.26744998  0.05193936     0.84500
O755        O  0.69368582  0.23768889  0.04720929    -0.80500
C756        C  0.28207531  0.25701214  0.80915025     0.80800
N757        N  0.25893675  0.27850296  0.81440201    -0.77600
C758        C  0.25626095  0.30439831  0.79541117     0.83200
N759        N  0.27731184  0.30905915  0.77175801    -0.77500
C760        C  0.30043045  0.28785355  0.76645252     0.83300
N761        N  0.30268300  0.26173387  0.78491081    -0.79200
C762        C  0.51920159  0.26225293  0.97077637     0.80800
N763        N  0.50406282  0.23439010  0.97408646    -0.77600
C764        C  0.49356710  0.22526984  0.00325486     0.83200
N765        N  0.49741993  0.24468415  0.02869272    -0.77500
C766        C  0.51323008  0.27236296  0.02564397     0.83300
N767        N  0.52390789  0.28084531  0.99654390    -0.79200
C768        C  0.46300146  0.46843040  0.74392954     0.80800
N769        N  0.49148806  0.47232108  0.75770385    -0.77600
C770        C  0.49482603  0.48877869  0.78508181     0.83200
N771        N  0.46905683  0.50085361  0.79928860    -0.77500
C772        C  0.44031559  0.49709889  0.78607066     0.83300
N773        N  0.43725561  0.48106059  0.75828477    -0.79200
C774        C  0.23163716  0.48548112  0.98016608     0.80800
N775        N  0.24310417  0.51435839  0.98829565    -0.77600
C776        C  0.26725920  0.51710449  0.00942657     0.83200
N777        N  0.28017566  0.49049570  0.02158822    -0.77500
C778        C  0.26885260  0.46170407  0.01363294     0.83300
N779        N  0.24463732  0.45938640  0.99328282    -0.79200
N780        N  0.36000019  0.60656310  0.90392440    -0.36100
N781        N  0.38114110  0.64599489  0.84944513    -0.56600
N782        N  0.36913014  0.70278361  0.88478038    -0.36100
N783        N  0.34506476  0.66188360  0.93587792    -0.56600
C784        C  0.35598998  0.58672772  0.87925190     0.27500
C785        C  0.34240878  0.59544935  0.92825935     0.27500
C786        C  0.37881012  0.71470802  0.85629626     0.27500
C787        C  0.34603268  0.72143327  0.89743158     0.27500
C788        C  0.38865835  0.61618806  0.84046715     0.36100
C789        C  0.40167247  0.66541632  0.83433795     0.36100
C790        C  0.34504261  0.64257338  0.96122505     0.36100
C791        C  0.34233416  0.69127572  0.94711218     0.36100
C792        C  0.33610428  0.56224422  0.88804344    -0.21400
C793        C  0.32760030  0.56768209  0.91921119    -0.21400
C794        C  0.36251586  0.74270000  0.85110394    -0.21400
C795        C  0.34129492  0.74646814  0.87653561    -0.21400
C796        C  0.41369412  0.61670055  0.81936511    -0.22400
C797        C  0.42195956  0.64773757  0.81552421    -0.22400
C798        C  0.34238311  0.65963216  0.98905890    -0.22400
C799        C  0.34086976  0.69081780  0.98019427    -0.22400
C800        C  0.37278067  0.58847553  0.85048481    -0.17800
C801        C  0.33952696  0.61028904  0.95816598    -0.17800
C802        C  0.33079018  0.71551364  0.92775199    -0.17800
C803        C  0.40073138  0.69896517  0.83523604    -0.17800
H804        H  0.32896226  0.54229439  0.87362858     0.15100
H805        H  0.31216874  0.55302196  0.93342411     0.15100
H806        H  0.36454267  0.75796420  0.83050786     0.15100
H807        H  0.32478161  0.76568928  0.87947320     0.15100
H808        H  0.42515803  0.59678027  0.80812596     0.13400
H809        H  0.44058037  0.65621051  0.80018595     0.13400
H810        H  0.33852569  0.65016903  0.01254826     0.13400
H811        H  0.33582449  0.71055718  0.99578496     0.13400
H812        H  0.37531231  0.62573905  0.90456550     0.26700
H813        H  0.37857149  0.68256195  0.89512620     0.26700
N814        N  0.59880063  0.38334639  0.87028488    -0.36100
N815        N  0.64442263  0.33428041  0.88812206    -0.56600
N816        N  0.69617970  0.37569408  0.87238574    -0.36100
N817        N  0.64878470  0.42135313  0.85085117    -0.56600
C818        C  0.58155602  0.35688748  0.86727454     0.27500
C819        C  0.58419290  0.40622317  0.85358864     0.27500
C820        C  0.71116075  0.34837649  0.88041797     0.27500
C821        C  0.71174736  0.39050316  0.84804656     0.27500
C822        C  0.61660452  0.32344501  0.89918939     0.36100
C823        C  0.66654196  0.32280356  0.90814912     0.36100
C824        C  0.62706926  0.44411258  0.85409843     0.36100
C825        C  0.67626499  0.43601558  0.84701785     0.36100
C826        C  0.55537828  0.36291056  0.84859814    -0.21400
C827        C  0.55695803  0.39433410  0.84000698    -0.21400
C828        C  0.73789781  0.34610555  0.86159099    -0.21400
C829        C  0.73785894  0.37216743  0.84071873    -0.21400
C830        C  0.62103142  0.30518752  0.92623859    -0.22400
C831        C  0.65258028  0.30467483  0.93186915    -0.22400
C832        C  0.64068929  0.47377867  0.85261080    -0.22400
C833        C  0.67218941  0.46854016  0.84796867    -0.22400
C834        C  0.58733055  0.32898684  0.88441154    -0.17800
C835        C  0.59518254  0.43751328  0.85115646    -0.17800
C836        C  0.70208912  0.42034629  0.83398143    -0.17800
C837        C  0.69927590  0.32584471  0.90344428    -0.17800
H838        H  0.53677448  0.34656753  0.84253556     0.15100
H839        H  0.54007572  0.40691514  0.82548444     0.15100
H840        H  0.75482562  0.32702675  0.86178801     0.15100
H841        H  0.75523557  0.37710981  0.82257438     0.15100
H842        H  0.60341638  0.29365110  0.94072435     0.13400
H843        H  0.66384880  0.29199793  0.95113096     0.13400
H844        H  0.62893883  0.49648132  0.85247872     0.13400
H845        H  0.68986645  0.48626685  0.84338212     0.13400
H846        H  0.61848613  0.38623958  0.88471821     0.26700
H847        H  0.67606320  0.38387479  0.88380667     0.26700
N848        N  0.41025258  0.34596894  0.63308855    -0.36100
N849        N  0.43439517  0.38818648  0.58427865    -0.56600
N850        N  0.37898523  0.37416638  0.54453235    -0.36100
N851        N  0.35853489  0.32642623  0.59430813    -0.56600
C852        C  0.43862438  0.35286381  0.64501679     0.27500
C853        C  0.39835651  0.32230292  0.65075547     0.27500
C854        C  0.39730997  0.39116145  0.52381424     0.27500
C855        C  0.35857487  0.35506830  0.52800958     0.27500
C856        C  0.45309538  0.39642872  0.60902556     0.36100
C857        C  0.43755987  0.41157393  0.56260874     0.36100
C858        C  0.34736985  0.32169319  0.62412472     0.36100
C859        C  0.33337795  0.33309899  0.57606040     0.36100
C860        C  0.44541480  0.33299073  0.67032886    -0.21400
C861        C  0.41997007  0.31316559  0.67370934    -0.21400
C862        C  0.38788279  0.38319699  0.49319993    -0.21400
C863        C  0.36404323  0.36038295  0.49576925    -0.21400
C864        C  0.46900295  0.42412904  0.60270305    -0.22400
C865        C  0.45951987  0.43356916  0.57332342    -0.22400
C866        C  0.31507047  0.32506618  0.62481891    -0.22400
C867        C  0.30619412  0.33247111  0.59431265    -0.22400
C868        C  0.45405160  0.38125882  0.63874665    -0.17800
C869        C  0.36639754  0.31428630  0.65052143    -0.17800
C870        C  0.33460885  0.33484287  0.54252683    -0.17800
C871        C  0.42213751  0.41324076  0.53268047    -0.17800
H872        H  0.46549886  0.33432919  0.68606375     0.15100
H873        H  0.41655237  0.29604310  0.69257579     0.15100
H874        H  0.39757372  0.39236822  0.47122132     0.15100
H875        H  0.35192992  0.34951660  0.47598267     0.15100
H876        H  0.48534177  0.43656749  0.61793987     0.13400
H877        H  0.46766480  0.45476304  0.56152073     0.13400
H878        H  0.29961618  0.32282696  0.64517839     0.13400
H879        H  0.28241208  0.33675858  0.58636690     0.13400
H880        H  0.39780780  0.35993956  0.61715423     0.26700
H881        H  0.37968476  0.37635274  0.56918453     0.26700
N882        N  0.39670829  0.37619596  0.09916927    -0.36100
N883        N  0.34227793  0.39275710  0.14133237    -0.56600
N884        N  0.37996200  0.38505379  0.19704022    -0.36100
N885        N  0.43119946  0.36453675  0.15391162    -0.56600
C886        C  0.37197220  0.36976535  0.08045837     0.27500
C887        C  0.42143748  0.35978103  0.08767711     0.27500
C888        C  0.35122056  0.39142286  0.20994890     0.27500
C889        C  0.39560563  0.36295372  0.21491546     0.27500
C890        C  0.33350458  0.40082712  0.11145448     0.36100
C891        C  0.32692346  0.41288111  0.16111666     0.36100
C892        C  0.45483892  0.36887157  0.13332531     0.36100
C893        C  0.44319301  0.36700439  0.18312493     0.36100
C894        C  0.38098824  0.34956494  0.05608986    -0.21400
C895        C  0.41242615  0.34303630  0.06077761    -0.21400
C896        C  0.34881688  0.37386864  0.23785926    -0.21400
C897        C  0.37629999  0.35538990  0.24052298    -0.21400
C898        C  0.31268331  0.42604399  0.11232480    -0.22400
C899        C  0.30843805  0.43358460  0.14364695    -0.22400
C900        C  0.48267943  0.37428287  0.14928004    -0.22400
C901        C  0.47519467  0.37353835  0.18117925    -0.22400
C902        C  0.34270026  0.38466902  0.08341031    -0.17800
C903        C  0.45159156  0.36013791  0.10156422    -0.17800
C904        C  0.42752240  0.35231322  0.20838559    -0.17800
C905        C  0.32763327  0.41130544  0.19480584    -0.17800
H906        H  0.36647886  0.34075077  0.03688807     0.15100
H907        H  0.42686824  0.32778473  0.04614062     0.15100
H908        H  0.32888319  0.37328245  0.25384319     0.15100
H909        H  0.38172021  0.33904204  0.25958096     0.15100
H910        H  0.30186691  0.43816982  0.09248291     0.13400
H911        H  0.29329035  0.45219669  0.15242242     0.13400
H912        H  0.50594413  0.37644640  0.13909626     0.13400
H913        H  0.49179668  0.37524395  0.20061458     0.13400
H914        H  0.39690579  0.39230748  0.11795868     0.26700
H915        H  0.38862267  0.39611226  0.17667492     0.26700
N916        N  0.34952414  0.14362163  0.93938412    -0.36100
N917        N  0.39127013  0.09069805  0.95351011    -0.56600
N918        N  0.36505620  0.04859371  0.90564968    -0.36100
N919        N  0.32545603  0.10278799  0.88891266    -0.56600
C920        C  0.37427256  0.15751767  0.95353407     0.27500
C921        C  0.33828704  0.16423611  0.91772404     0.27500
C922        C  0.39315873  0.03401641  0.91195413     0.27500
C923        C  0.35441721  0.04029138  0.87605026     0.27500
C924        C  0.39376694  0.10978238  0.97913555     0.36100
C925        C  0.40219039  0.06224530  0.96275587     0.36100
C926        C  0.30425930  0.12638766  0.89143489     0.36100
C927        C  0.31031001  0.07867591  0.87476724     0.36100
C928        C  0.37842521  0.18774334  0.94135787    -0.21400
C929        C  0.35547789  0.19202901  0.91860953    -0.21400
C930        C  0.40014852  0.01501906  0.88590069    -0.21400
C931        C  0.37585719  0.01884759  0.86349597    -0.21400
C932        C  0.40622685  0.09368329  0.00470877    -0.22400
C933        C  0.41072013  0.06322670  0.99476986    -0.22400
C934        C  0.27554122  0.11742711  0.87927002    -0.22400
C935        C  0.27914660  0.08683672  0.86930202    -0.22400
C936        C  0.39306974  0.14271504  0.97663587    -0.17800
C937        C  0.31309820  0.15761568  0.89728003    -0.17800
C938        C  0.32590584  0.05248089  0.86121163    -0.17800
C939        C  0.41151195  0.03856606  0.94093153    -0.17800
H940        H  0.39650504  0.20461320  0.94754807     0.15100
H941        H  0.35234995  0.21282102  0.90391499     0.15100
H942        H  0.42071838  0.00026473  0.88307281     0.15100
H943        H  0.37456195  0.00761532  0.84037519     0.15100
H944        H  0.41340835  0.10369483  0.02721211     0.13400
H945        H  0.42148547  0.04462109  0.00873230     0.13400
H946        H  0.25485783  0.13203880  0.87644008     0.13400
H947        H  0.26140849  0.07276914  0.85761240     0.13400
H948        H  0.34062927  0.12116512  0.94440281     0.26700
H949        H  0.35310515  0.06344083  0.92126401     0.26700
N950        N  0.13083527  0.42614426  0.84745178    -0.36100
N951        N  0.08234789  0.45036124  0.88813240    -0.56600
N952        N  0.04163872  0.39584217  0.86898036    -0.36100
N953        N  0.09212014  0.37512755  0.82555943    -0.56600
C954        C  0.14285566  0.45445668  0.85534351     0.27500
C955        C  0.14882639  0.41419823  0.82407863     0.27500
C956        C  0.02115595  0.41549823  0.88439781     0.27500
C957        C  0.02572676  0.37697945  0.84793806     0.27500
C958        C  0.10803740  0.46427563  0.90087296     0.36100
C959        C  0.06139735  0.44821666  0.91210305     0.36100
C960        C  0.12079856  0.36372925  0.81817749     0.36100
C961        C  0.07276276  0.35000478  0.82590756     0.36100
C962        C  0.16847240  0.46113181  0.83608643    -0.21400
C963        C  0.17232195  0.43546097  0.81623312    -0.21400
C964        C  0.99119270  0.40852106  0.87343346    -0.21400
C965        C  0.99407364  0.38452499  0.85045852    -0.21400
C966        C  0.10309856  0.47151841  0.93268128    -0.22400
C967        C  0.07355391  0.46150280  0.93975730    -0.22400
C968        C  0.11965391  0.33139335  0.81322894    -0.22400
C969        C  0.08914643  0.32266690  0.81794951    -0.22400
C970        C  0.13651545  0.46919226  0.88456223    -0.17800
C971        C  0.14789133  0.38238274  0.81504222    -0.17800
C972        C  0.03995902  0.35251764  0.82831735    -0.17800
C973        C  0.03003183  0.43851338  0.90841374    -0.17800
H974        H  0.18431908  0.48101354  0.83823002     0.15100
H975        H  0.19149384  0.43179833  0.79970077     0.15100
H976        H  0.96954568  0.41960020  0.88103336     0.15100
H977        H  0.97500171  0.37367848  0.83742616     0.15100
H978        H  0.11909790  0.48255974  0.94928974     0.13400
H979        H  0.06216790  0.46400585  0.96267348     0.13400
H980        H  0.13868780  0.31576704  0.80655030     0.13400
H981        H  0.08025148  0.29885681  0.81559592     0.13400
H982        H  0.11455824  0.41341587  0.86066961     0.26700
H983        H  0.06558889  0.39468317  0.87364341     0.26700
C984        C  0.75594396  0.76946442  0.30586114     0.80800
N985        N  0.75623371  0.79109867  0.28204615    -0.77600
C986        C  0.77939917  0.79143439  0.25999496     0.83200
N987        N  0.80251184  0.76954804  0.26160703    -0.77500
C988        C  0.80323316  0.74800380  0.28574273     0.83300
N989        N  0.77963947  0.74791219  0.30748283    -0.79200
N990        N  0.60752523  0.67794966  0.35095087    -0.36100
N991        N  0.58051105  0.62433550  0.38974845    -0.56600
N992        N  0.60134396  0.65124330  0.44924326    -0.36100
N993        N  0.63228585  0.70009338  0.40910511    -0.56600
C994        C  0.60522134  0.65448981  0.32984055     0.27500
C995        C  0.63132951  0.69660888  0.34128927     0.27500
C996        C  0.59199352  0.62172400  0.45842840     0.27500
C997        C  0.62615968  0.66144521  0.46739725     0.27500
C998        C  0.56714025  0.62292886  0.36048209     0.36100
C999        C  0.55966370  0.61135558  0.41046360     0.36100
C1000       C  0.63188977  0.72543717  0.38991459     0.36100
C1001       C  0.62946696  0.71103758  0.43877060     0.36100
C1002       C  0.62701833  0.65862669  0.30553519    -0.21400
C1003       C  0.64388193  0.68544832  0.31301192    -0.21400
C1004       C  0.61085580  0.61312915  0.48411992    -0.21400
C1005       C  0.63253615  0.63779479  0.48941033    -0.21400
C1006       C  0.53781200  0.60928134  0.36226493    -0.22400
C1007       C  0.53251143  0.60302032  0.39392064    -0.22400
C1008       C  0.62885539  0.75293625  0.40691376    -0.22400
C1009       C  0.62640961  0.74378960  0.43825571    -0.22400
C1010       C  0.58261347  0.63077764  0.33184208    -0.17800
C1011       C  0.64138827  0.72293669  0.35855145    -0.17800
C1012       C  0.64049274  0.69255963  0.46400593    -0.17800
C1013       C  0.56706836  0.60365251  0.44289516    -0.17800
H1014       H  0.63057913  0.64373502  0.28487815     0.15100
H1015       H  0.66311350  0.69540796  0.29945436     0.15100
H1016       H  0.60983082  0.59110799  0.49718829     0.15100
H1017       H  0.65046777  0.63835624  0.50764850     0.15100
H1018       H  0.52170624  0.60494326  0.34280613     0.13400
H1019       H  0.51073209  0.59370978  0.40321534     0.13400
H1020       H  0.62925856  0.77665116  0.39742009     0.13400
H1021       H  0.62424783  0.75943523  0.45848878     0.13400
H1022       H  0.59298350  0.68117885  0.37072219     0.26700
H1023       H  0.59041750  0.66438671  0.43139206     0.26700
C1024       C  0.72783200  0.52483133  0.00794276     0.80800
N1025       N  0.73754437  0.54699410  0.02911266    -0.77600
C1026       C  0.75311829  0.53811020  0.05567849     0.83200
N1027       N  0.75994226  0.50730791  0.06038310    -0.77500
C1028       C  0.75070212  0.48486784  0.03943971     0.83300
N1029       N  0.73397152  0.49374948  0.01332891    -0.79200
C1030       C  0.50500667  0.71613234  0.04432401     0.80800
N1031       N  0.52130285  0.72948330  0.06859295    -0.77600
C1032       C  0.54930359  0.74361183  0.06290906     0.83200
N1033       N  0.56079792  0.74476985  0.03281295    -0.77500
C1034       C  0.54463579  0.73175141  0.00843623     0.83300
N1035       N  0.51704010  0.71725860  0.01452643    -0.79200
C1036       C  0.54986368  0.50207071  0.20453826     0.80800
N1037       N  0.52047373  0.50666247  0.19293767    -0.77600
C1038       C  0.50518283  0.53430435  0.19863775     0.83200
N1039       N  0.51988636  0.55722944  0.21555871    -0.77500
C1040       C  0.54933302  0.55296190  0.22678894     0.83300
N1041       N  0.56410021  0.52528927  0.22123549    -0.79200
N1042       N  0.37817994  0.60230636  0.09787292    -0.36100
N1043       N  0.33511075  0.65084964  0.07672430    -0.56600
N1044       N  0.28702816  0.62747999  0.12053405    -0.36100
N1045       N  0.33309536  0.57557095  0.13985799    -0.56600
C1046       C  0.39401598  0.61434127  0.07308820     0.27500
C1047       C  0.39249028  0.57521368  0.10639701     0.27500
C1048       C  0.26948611  0.64506012  0.09972861     0.27500
C1049       C  0.26882787  0.60519043  0.13540875     0.27500
C1050       C  0.36310393  0.66342071  0.06836848     0.36100
C1051       C  0.31441398  0.67501313  0.07687410     0.36100
C1052       C  0.36062106  0.56804412  0.15374785     0.36100
C1053       C  0.31334758  0.58252333  0.16378560     0.36100
C1054       C  0.41839991  0.59413770  0.06484884    -0.21400
C1055       C  0.41732900  0.56918533  0.08594188    -0.21400
C1056       C  0.23880172  0.63401209  0.10186376    -0.21400
C1057       C  0.23840883  0.60896546  0.12407912    -0.21400
C1058       C  0.36018458  0.69551759  0.06275051    -0.22400
C1059       C  0.32935629  0.70284391  0.06785024    -0.22400
C1060       C  0.35812495  0.56916326  0.18666664    -0.22400
C1061       C  0.32829379  0.57930726  0.19301392    -0.22400
C1062       C  0.39083784  0.64590412  0.06352441    -0.17800
C1063       C  0.38796930  0.56133945  0.13639136    -0.17800
C1064       C  0.28079271  0.58318262  0.15923914    -0.17800
C1065       C  0.28167409  0.67115126  0.08057194    -0.17800
H1066       H  0.43657781  0.59808843  0.04730845     0.15100
H1067       H  0.43449882  0.55041860  0.08779635     0.15100
H1068       H  0.21877000  0.64298655  0.08884860     0.15100
H1069       H  0.21802823  0.59539455  0.13110475     0.15100
H1070       H  0.37811951  0.71178749  0.05469319     0.13400
H1071       H  0.31931325  0.72605955  0.06459834     0.13400
H1072       H  0.37580155  0.56365713  0.20431382     0.13400
H1073       H  0.31797495  0.58203232  0.21644861     0.13400
H1074       H  0.36176335  0.61462453  0.11135239     0.26700
H1075       H  0.31071005  0.63119343  0.12535562     0.26700
N1076       N  0.67584434  0.38248590  0.14375951    -0.36100
N1077       N  0.69366001  0.33066369  0.10543143    -0.56600
N1078       N  0.64245477  0.28806600  0.12809406    -0.36100
N1079       N  0.62106343  0.34267167  0.16260454    -0.56600
C1080       C  0.69536945  0.39623673  0.12268286     0.27500
C1081       C  0.65390394  0.40397418  0.15142365     0.27500
C1082       C  0.65059798  0.27459800  0.09968055     0.27500
C1083       C  0.61293103  0.27889285  0.13689889     0.27500
C1084       C  0.72045135  0.34755312  0.10634208     0.36100
C1085       C  0.70196054  0.30125628  0.09718253     0.36100
C1086       C  0.62219423  0.36745834  0.18275754     0.36100
C1087       C  0.60804014  0.31878282  0.17925553     0.36100
C1088       C  0.68657075  0.42747448  0.11785390    -0.21400
C1089       C  0.66011878  0.43238396  0.13617340    -0.21400
C1090       C  0.62577354  0.25536257  0.09041117    -0.21400
C1091       C  0.60228642  0.25776177  0.11396980    -0.21400
C1092       C  0.74603877  0.32916244  0.09866620    -0.22400
C1093       C  0.73438669  0.29940240  0.09343655    -0.22400
C1094       C  0.60999372  0.35965381  0.21218165    -0.22400
C1095       C  0.60208590  0.32842511  0.21030345    -0.22400
C1096       C  0.72030191  0.38036456  0.10768490    -0.17800
C1097       C  0.62931355  0.39800491  0.17268333    -0.17800
C1098       C  0.59662723  0.29080136  0.16489562    -0.17800
C1099       C  0.68033490  0.28015915  0.08363587    -0.17800
H1100       H  0.69761488  0.44468223  0.10239241     0.15100
H1101       H  0.64692747  0.45418900  0.13788531     0.15100
H1102       H  0.62460990  0.24113855  0.06902481     0.15100
H1103       H  0.57971975  0.24604608  0.11366112     0.15100
H1104       H  0.77005045  0.33693024  0.09571362     0.13400
H1105       H  0.74762670  0.27923350  0.08502314     0.13400
H1106       H  0.60695364  0.37475068  0.23273895     0.13400
H1107       H  0.59183399  0.31467931  0.22926884     0.13400
H1108       H  0.67749959  0.35958573  0.15283487     0.26700
H1109       H  0.65686572  0.30292071  0.14139185     0.26700
N1110       N  0.62842086  0.62531525  0.89571396    -0.36100
N1111       N  0.64811920  0.58103931  0.84742993    -0.56600
N1112       N  0.61961501  0.62088281  0.79711314    -0.36100
N1113       N  0.59536955  0.66088728  0.84794559    -0.56600
C1114       C  0.63408526  0.59978794  0.91398205     0.27500
C1115       C  0.61131930  0.64555144  0.91328436     0.27500
C1116       C  0.63126655  0.59645203  0.77957107     0.27500
C1117       C  0.59513307  0.63517454  0.78138935     0.27500
C1118       C  0.66290629  0.56923421  0.87347242     0.36100
C1119       C  0.66466094  0.57071850  0.82202266     0.36100
C1120       C  0.59977679  0.68301319  0.87055131     0.36100
C1121       C  0.58836941  0.67689967  0.82126693     0.36100
C1122       C  0.62063225  0.60389725  0.94380624    -0.21400
C1123       C  0.60601547  0.63294903  0.94332007    -0.21400
C1124       C  0.61446811  0.59559747  0.75119185    -0.21400
C1125       C  0.59145040  0.61943689  0.75258849    -0.21400
C1126       C  0.68806202  0.55060626  0.86472698    -0.22400
C1127       C  0.68951595  0.55181094  0.83240331    -0.22400
C1128       C  0.59549872  0.71309475  0.85840817    -0.22400
C1129       C  0.58830791  0.70902773  0.82695679    -0.22400
C1130       C  0.65423016  0.57504897  0.90529257    -0.17800
C1131       C  0.60229661  0.67572629  0.90282521    -0.17800
C1132       C  0.57800926  0.66273483  0.79301176    -0.17800
C1133       C  0.65666207  0.57568850  0.78949738    -0.17800
H1134       H  0.62180093  0.58799379  0.96397204     0.15100
H1135       H  0.59345785  0.64375328  0.96292734     0.15100
H1136       H  0.61790570  0.57909974  0.73180242     0.15100
H1137       H  0.57447416  0.62484909  0.73421382     0.15100
H1138       H  0.70397200  0.53759991  0.87997365     0.13400
H1139       H  0.70684346  0.53934545  0.81834326     0.13400
H1140       H  0.59633951  0.73532617  0.87115176     0.13400
H1141       H  0.58267962  0.72713817  0.80993018     0.13400
H1142       H  0.63771610  0.63005577  0.87330073     0.26700
H1143       H  0.62912819  0.62785118  0.81872794     0.26700
N1144       N  0.85750977  0.61577051  0.18580515    -0.36100
N1145       N  0.89282132  0.59738487  0.12492336    -0.56600
N1146       N  0.95206426  0.61376380  0.15068180    -0.36100
N1147       N  0.91561812  0.63362545  0.20885162    -0.56600
C1148       C  0.83590753  0.61782554  0.16267097     0.27500
C1149       C  0.84927802  0.63663043  0.20867191     0.27500
C1150       C  0.95934275  0.60859938  0.11923744     0.27500
C1151       C  0.96896417  0.63871983  0.16244740     0.27500
C1152       C  0.86386811  0.58437246  0.12390404     0.36100
C1153       C  0.91164141  0.57840600  0.10712970     0.36100
C1154       C  0.89914247  0.63443614  0.23620175     0.36100
C1155       C  0.94589482  0.63640984  0.21650833     0.36100
C1156       C  0.81276804  0.63928363  0.17110626    -0.21400
C1157       C  0.82139621  0.65148337  0.20030911    -0.21400
C1158       C  0.98266118  0.63012410  0.11110009    -0.21400
C1159       C  0.98820481  0.64937375  0.13792819    -0.21400
C1160       C  0.86414125  0.55712359  0.10575814    -0.22400
C1161       C  0.89445953  0.55295174  0.09579110    -0.22400
C1162       C  0.91906434  0.63693403  0.26204421    -0.22400
C1163       C  0.94892484  0.63784670  0.24957219    -0.22400
C1164       C  0.83645373  0.59930730  0.13514681    -0.17800
C1165       C  0.86746008  0.64297832  0.23597190    -0.17800
C1166       C  0.96656237  0.65079404  0.19493032    -0.17800
C1167       C  0.94306052  0.58611452  0.09855166    -0.17800
H1168       H  0.79224465  0.64581047  0.15740149     0.15100
H1169       H  0.80891945  0.66952683  0.21351449     0.15100
H1170       H  0.99343770  0.63280429  0.08790237     0.15100
H1171       H  0.00458369  0.66887743  0.13917530     0.15100
H1172       H  0.84445758  0.54190820  0.10021169     0.13400
H1173       H  0.90265548  0.53322943  0.08180810     0.13400
H1174       H  0.91258709  0.64100780  0.28665743     0.13400
H1175       H  0.97003336  0.64328929  0.26284822     0.13400
H1176       H  0.87656290  0.60025673  0.18586303     0.26700
H1177       H  0.93594703  0.60051130  0.16376801     0.26700
N1178       N  0.66263477  0.85612778  0.14438832    -0.36100
N1179       N  0.60935469  0.89457930  0.11659276    -0.56600
N1180       N  0.64563306  0.95100847  0.12042378    -0.36100
N1181       N  0.69576621  0.91131392  0.15413121    -0.56600
C1182       C  0.63748748  0.83782796  0.14943285     0.27500
C1183       C  0.68539422  0.84657182  0.16476166     0.27500
C1184       C  0.61694888  0.96278337  0.11202057     0.27500
C1185       C  0.66081241  0.97163667  0.14022208     0.27500
C1186       C  0.60115704  0.86415000  0.11120779     0.36100
C1187       C  0.59364981  0.91219010  0.09468978     0.36100
C1188       C  0.71912855  0.89005073  0.15237517     0.36100
C1189       C  0.70740097  0.93871089  0.14372683     0.36100
C1190       C  0.64408339  0.81590533  0.17312889    -0.21400
C1191       C  0.67444113  0.82167265  0.18313978    -0.21400
C1192       C  0.61411735  0.99245857  0.12594816    -0.21400
C1193       C  0.64133602  0.99768643  0.14427520    -0.21400
C1194       C  0.58015530  0.86252359  0.08596523    -0.22400
C1195       C  0.57527872  0.89283993  0.07569783    -0.22400
C1196       C  0.74613656  0.90369318  0.14072989    -0.22400
C1197       C  0.73879952  0.93509676  0.13560883    -0.22400
C1198       C  0.61083014  0.83789091  0.12985957    -0.17800
C1199       C  0.71577787  0.85993107  0.16538400    -0.17800
C1200       C  0.69247144  0.96677041  0.15205705    -0.17800
C1201       C  0.59390823  0.94568317  0.09322355    -0.17800
H1202       H  0.62876404  0.79739134  0.18180818     0.15100
H1203       H  0.68693758  0.80883553  0.20147938     0.15100
H1204       H  0.59412061  0.00814498  0.12417210     0.15100
H1205       H  0.64643981  0.01855056  0.15824269     0.15100
H1206       H  0.56922615  0.84168968  0.07597054     0.13400
H1207       H  0.55961144  0.89979256  0.05667611     0.13400
H1208       H  0.76866225  0.89233795  0.13745258     0.13400
H1209       H  0.75490867  0.95349402  0.12831580     0.13400
H1210       H  0.66465365  0.87280277  0.12618526     0.26700
H1211       H  0.65486619  0.92964760  0.11231787     0.26700
O1212       O  0.70427519  0.47259099  0.66796811    -0.78000
C1213       C  0.76052991  0.55906530  0.67519128     0.83100
O1214       O  0.79611125  0.43580191  0.73929494    -0.79100
O1215       O  0.78660941  0.54203687  0.78014303    -0.80600
O1216       O  0.66829866  0.52701630  0.76262700    -0.80400
O1217       O  0.66753927  0.47170760  0.70554504    -0.79000
Zn1218     Zn  0.74538448  0.48732434  0.69166878     1.55700
O1219       O  0.70525411  0.56434597  0.76350095    -0.80400
Cd1220     Cd  0.69300193  0.48585356  0.74740157     1.59700
Cd1221     Cd  0.76884908  0.46724059  0.76669653     1.59600
O1222       O  0.69505141  0.45164975  0.78617425    -0.80400
O1223       O  0.73877757  0.49540792  0.73775276    -1.90900
Cd1224     Cd  0.74688134  0.54195275  0.74675770     1.59900
O1225       O  0.74434951  0.43928995  0.79997004    -0.80300
O1226       O  0.75694224  0.56820306  0.70410546    -0.79000
C1227       C  0.79715968  0.43256616  0.70911586     0.83500
C1228       C  0.67566074  0.46798232  0.67627715     0.83200
O1229       O  0.75743890  0.52960737  0.66813550    -0.77900
C1230       C  0.67667983  0.55562764  0.76785870     0.84000
O1231       O  0.78034810  0.45058285  0.69068464    -0.78000
C1232       C  0.71486619  0.43685500  0.80443729     0.84100
C1233       C  0.80528636  0.52316956  0.79568955     0.84500
O1234       O  0.80152475  0.49332147  0.79424855    -0.80500
O1235       O  0.93629299  0.01931236  0.47319804    -0.78000
C1236       C  0.93243455  0.94286487  0.54428512     0.83100
O1237       O  0.00049310  0.06606103  0.56337859    -0.79100
O1238       O  0.03919787  0.95809130  0.56954584    -0.80600
O1239       O  0.02863046  0.95420013  0.45110383    -0.80400
O1240       O  0.97491108  0.01191444  0.43828162    -0.79000
Zn1241     Zn  0.95523486  0.00852218  0.51802994     1.55700
O1242       O  0.01912569  0.92317496  0.49286971    -0.80400
Cd1243     Cd  0.01370558  0.99960018  0.46843288     1.59700
Cd1244     Cd  0.02878692  0.03048043  0.54214331     1.59600
O1245       O  0.05267707  0.03291484  0.46725592    -0.80400
O1246       O  0.00052112  0.99835137  0.51516326    -1.90900
Cd1247     Cd  0.00471536  0.95341592  0.53132043     1.59900
O1248       O  0.06464600  0.05347984  0.51473064    -0.80300
O1249       O  0.96072148  0.93249042  0.54629073    -0.79000
C1250       C  0.97057907  0.06869045  0.56325620     0.83500
C1251       C  0.94626499  0.01933102  0.44433640     0.83200
O1252       O  0.92745478  0.97108003  0.53441789    -0.77900
C1253       C  0.02853529  0.92668152  0.46395273     0.84000
O1254       O  0.95354334  0.04803170  0.54860519    -0.78000
C1255       C  0.07062209  0.05041275  0.48504633     0.84100
C1256       C  0.05600511  0.97828420  0.58561805     0.84500
O1257       O  0.05449737  0.00774966  0.57919584    -0.80500
C1258       C  0.51227273  0.00380180  0.77907241     0.80800
N1259       N  0.50604870  0.97956847  0.75896980    -0.77600
C1260       C  0.48530531  0.98330737  0.73462662     0.83200
N1261       N  0.47179580  0.01190716  0.72985584    -0.77500
C1262       C  0.47794367  0.03620377  0.75001388     0.83300
N1263       N  0.49829345  0.03218831  0.77432486    -0.79200
C1264       C  0.72965828  0.06068344  0.55214534     0.80800
N1265       N  0.71686845  0.04017752  0.57339504    -0.77600
C1266       C  0.68978353  0.02505383  0.56609298     0.83200
N1267       N  0.67651012  0.02961481  0.53724159    -0.77500
C1268       C  0.68921764  0.04964703  0.51576980     0.83300
N1269       N  0.71580821  0.06529593  0.52346819    -0.79200
C1270       C  0.52059088  0.26751369  0.48317398     0.80800
N1271       N  0.51634561  0.24886969  0.45727876    -0.77600
C1272       C  0.49119555  0.22904635  0.45577258     0.83200
N1273       N  0.47151533  0.22696585  0.48112845    -0.77500
C1274       C  0.47562901  0.24583229  0.50691996     0.83300
N1275       N  0.50010708  0.26592899  0.50775205    -0.79200
N1276       N  0.57446090  0.09568553  0.38053770    -0.36100
N1277       N  0.55676029  0.13014392  0.32696065    -0.56600
N1278       N  0.61334529  0.11289482  0.28797395    -0.36100
N1279       N  0.63324870  0.07926932  0.34279217    -0.56600
C1280       C  0.55403518  0.11696147  0.39275454     0.27500
C1281       C  0.59697368  0.09141169  0.40245560     0.27500
C1282       C  0.60388331  0.14086800  0.27454647     0.27500
C1283       C  0.64388474  0.10621406  0.27990704     0.27500
C1284       C  0.52917422  0.12839163  0.34262911     0.36100
C1285       C  0.55013389  0.13931242  0.29722404     0.36100
C1286       C  0.63419977  0.06117152  0.36927454     0.36100
C1287       C  0.65266970  0.06534825  0.32143139     0.36100
C1288       C  0.56345529  0.12578559  0.42311268    -0.21400
C1289       C  0.59058168  0.10937774  0.42934494    -0.21400
C1290       C  0.62903393  0.15209631  0.25667528    -0.21400
C1291       C  0.65382614  0.13013580  0.25954195    -0.21400
C1292       C  0.50452189  0.13597219  0.32272681    -0.22400
C1293       C  0.51775274  0.14258038  0.29365483    -0.22400
C1294       C  0.65403893  0.03570597  0.36502770    -0.22400
C1295       C  0.66569759  0.03817541  0.33476904    -0.22400
C1296       C  0.52821672  0.12930985  0.37589685    -0.17800
C1297       C  0.62243376  0.07076166  0.39892842    -0.17800
C1298       C  0.66187290  0.07926893  0.29203330    -0.17800
C1299       C  0.57268284  0.15480215  0.27846355    -0.17800
H1300       H  0.55270273  0.14293613  0.43880066     0.15100
H1301       H  0.60442079  0.11105932  0.45090027     0.15100
H1302       H  0.62948699  0.17367568  0.24282905     0.15100
H1303       H  0.67683689  0.13223917  0.24880813     0.15100
H1304       H  0.48020494  0.13932289  0.32937571     0.13400
H1305       H  0.50541869  0.15213970  0.27325384     0.13400
H1306       H  0.66050730  0.01803749  0.38250917     0.13400
H1307       H  0.68306093  0.02241229  0.32474274     0.13400
H1308       H  0.57310040  0.08419997  0.35856195     0.26700
H1309       H  0.59903585  0.09842694  0.30182827     0.26700
N1310       N  0.39738787  0.16905592  0.65467599    -0.36100
N1311       N  0.35037411  0.18609305  0.60773800    -0.56600
N1312       N  0.30685585  0.13824829  0.63264665    -0.36100
N1313       N  0.35465761  0.12408342  0.68227625    -0.56600
C1314       C  0.41035429  0.19546342  0.64281506     0.27500
C1315       C  0.41298625  0.16185384  0.68155155     0.27500
C1316       C  0.28734974  0.15543943  0.61327692     0.27500
C1317       C  0.28961783  0.12134570  0.65434509     0.27500
C1318       C  0.37596494  0.20069443  0.59562465     0.36100
C1319       C  0.32918066  0.18521495  0.58385032     0.36100
C1320       C  0.38256198  0.11394113  0.69382009     0.36100
C1321       C  0.33504827  0.09915806  0.68445488     0.36100
C1322       C  0.43447306  0.20558066  0.66245415    -0.21400
C1323       C  0.43605142  0.18423104  0.68727121    -0.21400
C1324       C  0.25672955  0.14865973  0.62244816    -0.21400
C1325       C  0.25814933  0.12735068  0.64811991    -0.21400
C1326       C  0.37095111  0.20925824  0.56419443    -0.22400
C1327       C  0.34156106  0.19955726  0.55672908    -0.22400
C1328       C  0.38057577  0.08257031  0.70316862    -0.22400
C1329       C  0.35040929  0.07344892  0.69773452    -0.22400
C1330       C  0.40388333  0.20717026  0.61238760    -0.17800
C1331       C  0.40931840  0.13321997  0.69785260    -0.17800
C1332       C  0.30257641  0.10023830  0.67842123    -0.17800
C1333       C  0.29747270  0.17598739  0.58733056    -0.17800
H1334       H  0.45003079  0.22543045  0.65852107     0.15100
H1335       H  0.45313424  0.18420531  0.70635206     0.15100
H1336       H  0.23555044  0.15801678  0.61178128     0.15100
H1337       H  0.23826532  0.11740641  0.66066676     0.15100
H1338       H  0.38661118  0.22158273  0.54814350     0.13400
H1339       H  0.33065913  0.20348950  0.53383067     0.13400
H1340       H  0.39876199  0.06768443  0.71308222     0.13400
H1341       H  0.34070823  0.05047849  0.70315690     0.13400
H1342       H  0.38127348  0.15472385  0.64306546     0.26700
H1343       H  0.33112629  0.13721071  0.63049501     0.26700
C1344       C  0.73932656  0.21129582  0.75246034     0.80800
N1345       N  0.77078603  0.21709715  0.75305013    -0.77600
C1346       C  0.78291881  0.24132918  0.73564277     0.83200
N1347       N  0.76339663  0.25846024  0.71715358    -0.77500
C1348       C  0.73246702  0.25217467  0.71516480     0.83300
N1349       N  0.72013752  0.22878198  0.73341714    -0.79200
N1350       N  0.63674647  0.35185816  0.58668488    -0.36100
N1351       N  0.65292060  0.39428419  0.63729120    -0.56600
N1352       N  0.61580512  0.44536049  0.60859949    -0.36100
N1353       N  0.60249056  0.40201531  0.55350281    -0.56600
C1354       C  0.65853227  0.33476270  0.60213444     0.27500
C1355       C  0.63477398  0.34039173  0.55678603     0.27500
C1356       C  0.63602884  0.46228738  0.62737875     0.27500
C1357       C  0.60210308  0.46458510  0.58624425     0.27500
C1358       C  0.66052130  0.36654006  0.65133114     0.36100
C1359       C  0.65548159  0.41668584  0.65999755     0.36100
C1360       C  0.59116552  0.37419350  0.54264002     0.36100
C1361       C  0.57717336  0.42069094  0.55784569     0.36100
C1362       C  0.67089715  0.31210844  0.58170346    -0.21400
C1363       C  0.65618796  0.31609266  0.55274013    -0.21400
C1364       C  0.63471407  0.49348238  0.61698871    -0.21400
C1365       C  0.61338651  0.49496809  0.59140316    -0.21400
C1366       C  0.66816511  0.37131505  0.68301811    -0.22400
C1367       C  0.66510757  0.40294057  0.68850635    -0.22400
C1368       C  0.55879456  0.37494452  0.54031209    -0.22400
C1369       C  0.54983121  0.40418148  0.55076379    -0.22400
C1370       C  0.66479173  0.33780609  0.63488871    -0.17800
C1371       C  0.60994348  0.34771409  0.53606747    -0.17800
C1372       C  0.57949817  0.45366187  0.56257539    -0.17800
C1373       C  0.65410302  0.44957997  0.65405145    -0.17800
H1374       H  0.68789472  0.29390617  0.58710965     0.15100
H1375       H  0.65924032  0.30140994  0.53184843     0.15100
H1376       H  0.64759278  0.51320452  0.62689432     0.15100
H1377       H  0.60725759  0.51598335  0.57809860     0.15100
H1378       H  0.67662527  0.35420207  0.70014153     0.13400
H1379       H  0.67040615  0.41431632  0.71091177     0.13400
H1380       H  0.54324688  0.35604607  0.53304240     0.13400
H1381       H  0.52586017  0.41252698  0.55250185     0.13400
H1382       H  0.62162480  0.36818192  0.59713391     0.26700
H1383       H  0.61056707  0.42150061  0.61133618     0.26700
N1384       N  0.58857012  0.89616215  0.63815221    -0.36100
N1385       N  0.64272623  0.85777566  0.61514775    -0.56600
N1386       N  0.60611541  0.80089002  0.62312720    -0.36100
N1387       N  0.55536848  0.84153555  0.64935503    -0.56600
C1388       C  0.61336981  0.91482740  0.64383857     0.27500
C1389       C  0.56480374  0.90665724  0.65656518     0.27500
C1390       C  0.63470643  0.78920354  0.61414891     0.27500
C1391       C  0.59196394  0.78109485  0.64468514     0.27500
C1392       C  0.64959654  0.88800629  0.60711656     0.36100
C1393       C  0.65609774  0.83925118  0.59253972     0.36100
C1394       C  0.53094003  0.86164316  0.64843656     0.36100
C1395       C  0.54354570  0.81238322  0.64775726     0.36100
C1396       C  0.60549904  0.93770153  0.66615829    -0.21400
C1397       C  0.57457988  0.93247059  0.67432770    -0.21400
C1398       C  0.63856664  0.76034649  0.62950505    -0.21400
C1399       C  0.61216814  0.75566503  0.64927276    -0.21400
C1400       C  0.66725715  0.88879292  0.57945331    -0.22400
C1401       C  0.67130677  0.85796019  0.57014079    -0.22400
C1402       C  0.50300433  0.84536416  0.64609864    -0.22400
C1403       C  0.51099914  0.81379501  0.64587105    -0.22400
C1404       C  0.64036393  0.91485344  0.62481443    -0.17800
C1405       C  0.53448827  0.89350092  0.65630724    -0.17800
C1406       C  0.56095210  0.78645871  0.65850585    -0.17800
C1407       C  0.65668402  0.80570497  0.59338080    -0.17800
H1408       H  0.62017794  0.95681278  0.67462311     0.15100
H1409       H  0.56085196  0.94625844  0.69101225     0.15100
H1410       H  0.65882020  0.74498333  0.62783114     0.15100
H1411       H  0.60816781  0.73558804  0.66472829     0.15100
H1412       H  0.67636205  0.90939642  0.56725904     0.13400
H1413       H  0.68456122  0.85033538  0.54952879     0.13400
H1414       H  0.47964516  0.85529095  0.64698086     0.13400
H1415       H  0.49491409  0.79403796  0.64678372     0.13400
H1416       H  0.58724141  0.87885775  0.62051240     0.26700
H1417       H  0.59653224  0.82172842  0.61420153     0.26700
N1418       N  0.86178172  0.17079175  0.61129466    -0.36100
N1419       N  0.91754717  0.19621133  0.63522124    -0.56600
N1420       N  0.95915278  0.14722332  0.60911037    -0.36100
N1421       N  0.90137823  0.11774595  0.58707907    -0.56600
C1422       C  0.85086723  0.18910406  0.63524213     0.27500
C1423       C  0.84103933  0.14736505  0.60717053     0.27500
C1424       C  0.97547086  0.15886221  0.63459720     0.27500
C1425       C  0.96846585  0.11711887  0.60271002     0.27500
C1426       C  0.89772809  0.22055760  0.63826226     0.36100
C1427       C  0.94639557  0.20826391  0.63483340     0.36100
C1428       C  0.87363954  0.11454840  0.57169691     0.36100
C1429       C  0.92323847  0.10383432  0.56827764     0.36100
C1430       C  0.82199407  0.17788549  0.64551868    -0.21400
C1431       C  0.81567235  0.15140789  0.62753663    -0.21400
C1432       C  0.99633440  0.13562567  0.64445050    -0.21400
C1433       C  0.99230925  0.10955902  0.62405823    -0.21400
C1434       C  0.91375238  0.24878736  0.63975898    -0.22400
C1435       C  0.94493131  0.24104281  0.63643541    -0.22400
C1436       C  0.87761630  0.09884484  0.54314196    -0.22400
C1437       C  0.90911985  0.09299758  0.54040056    -0.22400
C1438       C  0.86718869  0.21515924  0.64797328    -0.17800
C1439       C  0.84439178  0.12341363  0.58440545    -0.17800
C1440       C  0.95454936  0.09737563  0.57831025    -0.17800
C1441       C  0.97057096  0.19016111  0.64759136    -0.17800
H1442       H  0.80716075  0.18761634  0.66403447     0.15100
H1443       H  0.79507607  0.13656213  0.62955269     0.15100
H1444       H  0.01267231  0.13720112  0.66411765     0.15100
H1445       H  0.00468604  0.08727371  0.62564674     0.15100
H1446       H  0.90414773  0.27186341  0.64485219     0.13400
H1447       H  0.96464638  0.25680072  0.63953600     0.13400
H1448       H  0.85973206  0.09294638  0.52582129     0.13400
H1449       H  0.92007799  0.08211536  0.51990029     0.13400
H1450       H  0.88211998  0.17395729  0.59784591     0.26700
H1451       H  0.94227074  0.15950766  0.59604473     0.26700
N1452       N  0.66051800  0.07045183  0.85116587    -0.36100
N1453       N  0.62120867  0.04948441  0.90494710    -0.56600
N1454       N  0.64481853  0.09665654  0.94949203    -0.36100
N1455       N  0.68052374  0.12048532  0.89495272    -0.56600
C1456       C  0.63748200  0.05391533  0.83692386     0.27500
C1457       C  0.66896867  0.09379479  0.83106667     0.27500
C1458       C  0.61765042  0.08709479  0.96418946     0.27500
C1459       C  0.65341770  0.12613317  0.95972568     0.27500
C1460       C  0.62319052  0.02485717  0.88461160     0.36100
C1461       C  0.61379572  0.03730609  0.93365796     0.36100
C1462       C  0.70079737  0.12148984  0.87019418     0.36100
C1463       C  0.69598268  0.13290111  0.92000784     0.36100
C1464       C  0.63190099  0.06610888  0.80673780    -0.21400
C1465       C  0.65208243  0.09142567  0.80296697    -0.21400
C1466       C  0.60909368  0.11099555  0.98520664    -0.21400
C1467       C  0.63151532  0.13536393  0.98248835    -0.21400
C1468       C  0.61695154  0.99681090  0.89996194    -0.22400
C1469       C  0.61176735  0.00441071  0.93120002    -0.22400
C1470       C  0.72916931  0.13438092  0.87928791    -0.22400
C1471       C  0.72654149  0.14058611  0.91115087    -0.22400
C1472       C  0.62132530  0.02890103  0.85168702    -0.17800
C1473       C  0.69134647  0.11694507  0.83857241    -0.17800
C1474       C  0.68072160  0.14350705  0.94803043    -0.17800
C1475       C  0.60255005  0.05652804  0.95899620    -0.17800
H1476       H  0.61470298  0.05813477  0.78956884     0.15100
H1477       H  0.65351940  0.10677813  0.78238277     0.15100
H1478       H  0.58894268  0.11094113  0.00092193     0.15100
H1479       H  0.63140555  0.15742346  0.99552485     0.15100
H1480       H  0.61515189  0.97354149  0.88938832     0.13400
H1481       H  0.60686987  0.98701483  0.94932700     0.13400
H1482       H  0.74917753  0.13964744  0.86427063     0.13400
H1483       H  0.74443263  0.15152102  0.92569838     0.13400
H1484       H  0.66990933  0.06606517  0.87370667     0.26700
H1485       H  0.65777554  0.08309977  0.93349425     0.26700
C1486       C  0.02136081  0.69606202  0.55938782     0.80800
N1487       N  0.04154979  0.68331465  0.53781101    -0.77600
C1488       C  0.07045035  0.69610700  0.53311116     0.83200
N1489       N  0.07862999  0.72190412  0.55012180    -0.77500
C1490       C  0.05872471  0.73472872  0.57156832     0.83300
N1491       N  0.02981239  0.72232474  0.57562462    -0.79200
N1492       N  0.18394404  0.64297388  0.39311162    -0.36100
N1493       N  0.19681341  0.61157251  0.33587892    -0.56600
N1494       N  0.13951231  0.63459653  0.30246376    -0.36100
N1495       N  0.12316332  0.66334295  0.36163871    -0.56600
C1496       C  0.20623106  0.62205837  0.40226875     0.27500
C1497       C  0.16412153  0.64651807  0.41780809     0.27500
C1498       C  0.14582364  0.60710656  0.28646203     0.27500
C1499       C  0.10935085  0.64399892  0.29672869     0.27500
C1500       C  0.22571911  0.61182456  0.34896044     0.36100
C1501       C  0.20054219  0.60358655  0.30520415     0.36100
C1502       C  0.12462890  0.67889688  0.38971296     0.36100
C1503       C  0.10474568  0.68103313  0.34225954     0.36100
C1504       C  0.20098213  0.61298435  0.43359711    -0.21400
C1505       C  0.17433755  0.62861381  0.44347912    -0.21400
C1506       C  0.11900386  0.59901289  0.26953327    -0.21400
C1507       C  0.09634168  0.62247459  0.27547259    -0.21400
C1508       C  0.24816053  0.60411714  0.32644769    -0.22400
C1509       C  0.23224979  0.59924516  0.29850404    -0.22400
C1510       C  0.10725742  0.70638379  0.38852383    -0.22400
C1511       C  0.09539042  0.70827290  0.35829007    -0.22400
C1512       C  0.23003844  0.61030643  0.38204674    -0.17800
C1513       C  0.13765117  0.66626813  0.41767218    -0.17800
C1514       C  0.09396790  0.67084818  0.31180933    -0.17800
C1515       C  0.17579654  0.59075114  0.28726152    -0.17800
H1516       H  0.21425483  0.59619105  0.44761567     0.15100
H1517       H  0.16340623  0.62654966  0.46667973     0.15100
H1518       H  0.11607213  0.57855642  0.25435846     0.15100
H1519       H  0.07262845  0.62284543  0.26623990     0.15100
H1520       H  0.27277810  0.59931534  0.33051686     0.13400
H1521       H  0.24238338  0.59030287  0.27661446     0.13400
H1522       H  0.10356460  0.72326482  0.40754539     0.13400
H1523       H  0.08121145  0.72761684  0.34983908     0.13400
H1524       H  0.18234153  0.65462552  0.37125677     0.26700
H1525       H  0.15542344  0.64699315  0.31652913     0.26700
C1526       C  0.24405140  0.70422794  0.69548511     0.80800
N1527       N  0.22644645  0.70169518  0.72214231    -0.77600
C1528       C  0.20747159  0.72539045  0.73168761     0.83200
N1529       N  0.20649403  0.75238832  0.71461413    -0.77500
C1530       C  0.22417630  0.75580972  0.68787446     0.83300
N1531       N  0.24292032  0.73155370  0.67827923    -0.79200
C1532       C  0.26245813  0.46796973  0.47745278     0.80800
N1533       N  0.26181209  0.48998844  0.45421091    -0.77600
C1534       C  0.28618214  0.51028005  0.45024303     0.83200
N1535       N  0.31085502  0.50920398  0.47083654    -0.77500
C1536       C  0.31183266  0.48671844  0.49421521     0.83300
N1537       N  0.28745123  0.46654578  0.49712990    -0.79200
N1538       N  0.35952567  0.56276621  0.64820657    -0.36100
N1539       N  0.41653992  0.54867784  0.61750616    -0.56600
N1540       N  0.45183067  0.60488768  0.63806625    -0.36100
N1541       N  0.39443029  0.62240929  0.66774112    -0.56600
C1542       C  0.35024321  0.54250363  0.62523699     0.27500
C1543       C  0.33666576  0.58441309  0.65139296     0.27500
C1544       C  0.46554645  0.59803906  0.60935558     0.27500
C1545       C  0.45780592  0.63544126  0.64656131     0.27500
C1546       C  0.40197536  0.52053938  0.61737377     0.36100
C1547       C  0.44626683  0.54355496  0.60882345     0.36100
C1548       C  0.36734016  0.62099250  0.68438597     0.36100
C1549       C  0.41459685  0.63966562  0.68557908     0.36100
C1550       C  0.32018622  0.55021294  0.61513849    -0.21400
C1551       C  0.31151650  0.57686779  0.63186571    -0.21400
C1552       C  0.48160987  0.62495023  0.59960975    -0.21400
C1553       C  0.47730491  0.64819674  0.62328302    -0.21400
C1554       C  0.42281345  0.49682208  0.60938172    -0.22400
C1555       C  0.45120291  0.51141809  0.60425486    -0.22400
C1556       C  0.36990950  0.63742992  0.71263157    -0.22400
C1557       C  0.40020165  0.64813840  0.71413176    -0.22400
C1558       C  0.36984827  0.51941349  0.61150177    -0.17800
C1559       C  0.33887208  0.61093500  0.67117919    -0.17800
C1560       C  0.44385136  0.65116966  0.67400226    -0.17800
C1561       C  0.46308582  0.56754102  0.59351768    -0.17800
H1562       H  0.30654912  0.53868091  0.59675482     0.15100
H1563       H  0.28978396  0.58984680  0.62909846     0.15100
H1564       H  0.49510902  0.62758966  0.57792105     0.15100
H1565       H  0.48626447  0.67211755  0.62258656     0.15100
H1566       H  0.41706437  0.47246943  0.60420522     0.13400
H1567       H  0.47202071  0.50049295  0.59440567     0.13400
H1568       H  0.35159434  0.64178995  0.72995560     0.13400
H1569       H  0.40986724  0.66132689  0.73387346     0.13400
H1570       H  0.38080546  0.56267379  0.66051690     0.26700
H1571       H  0.43878466  0.58916626  0.65183802     0.26700
C1572       C  0.00865548  0.53346607  0.75390940     0.80800
N1573       N  0.98298125  0.53274817  0.73499285    -0.77600
C1574       C  0.98368951  0.51765013  0.70658086     0.83200
N1575       N  0.01068265  0.50420743  0.69660184    -0.77500
C1576       C  0.03676339  0.50503639  0.71510815     0.83300
N1577       N  0.03585256  0.51986543  0.74379540    -0.79200
N1578       N  0.13607429  0.41135075  0.59526730    -0.36100
N1579       N  0.15104523  0.35526569  0.56190251    -0.56600
N1580       N  0.11874223  0.31428455  0.60770813    -0.36100
N1581       N  0.10641942  0.37077567  0.64516436    -0.56600
C1582       C  0.15809813  0.42161097  0.57468172     0.27500
C1583       C  0.13725914  0.43000968  0.62112738     0.27500
C1584       C  0.14088892  0.29437829  0.59504507     0.27500
C1585       C  0.10756304  0.30243379  0.63578330     0.27500
C1586       C  0.15298795  0.37701248  0.53861197     0.36100
C1587       C  0.14962440  0.32701363  0.54754391     0.36100
C1588       C  0.09663776  0.40083256  0.65013347     0.36100
C1589       C  0.08201593  0.35181358  0.65332001     0.36100
C1590       C  0.17344243  0.44762665  0.58740178    -0.21400
C1591       C  0.16011771  0.45299827  0.61701014    -0.21400
C1592       C  0.14363520  0.26877582  0.61556797    -0.21400
C1593       C  0.12242508  0.27356568  0.64083786    -0.21400
C1594       C  0.15252299  0.36277267  0.50900462    -0.22400
C1595       C  0.15033683  0.33092037  0.51461238    -0.22400
C1596       C  0.06603958  0.40120258  0.66107652    -0.22400
C1597       C  0.05647806  0.37032910  0.66232979    -0.22400
C1598       C  0.16348462  0.40767698  0.54473546    -0.17800
C1599       C  0.11557024  0.42795312  0.64620185    -0.17800
C1600       C  0.08434786  0.31825140  0.65568847    -0.17800
C1601       C  0.15621448  0.29913242  0.56442136    -0.17800
H1602       H  0.19202898  0.46132019  0.57649729     0.15100
H1603       H  0.16604249  0.47189933  0.63330196     0.15100
H1604       H  0.15877049  0.24846910  0.61240036     0.15100
H1605       H  0.11905956  0.25788492  0.66091578     0.15100
H1606       H  0.15555828  0.37401854  0.48603026     0.13400
H1607       H  0.15036729  0.31295982  0.49632032     0.13400
H1608       H  0.05178728  0.42167922  0.66662037     0.13400
H1609       H  0.03295694  0.36291317  0.66843339     0.13400
H1610       H  0.11974460  0.39344967  0.59121633     0.26700
H1611       H  0.11050256  0.33499391  0.59719072     0.26700
N1612       N  0.87885342  0.59944854  0.59016258    -0.36100
N1613       N  0.83971476  0.65321466  0.57742248    -0.56600
N1614       N  0.79019933  0.62620336  0.61773184    -0.36100
N1615       N  0.83172713  0.57004518  0.62858966    -0.56600
C1616       C  0.89644307  0.61480935  0.56860568     0.27500
C1617       C  0.89109095  0.57030988  0.59353078     0.27500
C1618       C  0.77334018  0.64719573  0.59944641     0.27500
C1619       C  0.77045934  0.60497922  0.63218428     0.27500
C1620       C  0.86824921  0.66575068  0.57106542     0.36100
C1621       C  0.81932166  0.67757384  0.57913245     0.36100
C1622       C  0.85731977  0.55326196  0.63752737     0.36100
C1623       C  0.81152652  0.56788533  0.65316199     0.36100
C1624       C  0.91978695  0.59473392  0.55731694    -0.21400
C1625       C  0.91626470  0.56647529  0.57310006    -0.21400
C1626       C  0.74185319  0.63928400  0.60290990    -0.21400
C1627       C  0.74003891  0.61315413  0.62358819    -0.21400
C1628       C  0.86611260  0.69829171  0.56863427    -0.22400
C1629       C  0.83502017  0.70578759  0.57324086    -0.22400
C1630       C  0.85308260  0.53977805  0.66722459    -0.22400
C1631       C  0.82422067  0.54904567  0.67714419    -0.22400
C1632       C  0.89549369  0.64779931  0.56471660    -0.17800
C1633       C  0.88546235  0.55144551  0.62024138    -0.17800
C1634       C  0.78034238  0.57910862  0.65293394    -0.17800
C1635       C  0.78638837  0.67380921  0.58145447    -0.17800
H1636       H  0.93892470  0.60031846  0.54139856     0.15100
H1637       H  0.93213139  0.54650501  0.57199590     0.15100
H1638       H  0.72215165  0.65130994  0.59204445     0.15100
H1639       H  0.71875012  0.60133301  0.63106969     0.15100
H1640       H  0.88471769  0.71473453  0.56281957     0.13400
H1641       H  0.82524712  0.72934492  0.57204133     0.13400
H1642       H  0.86922988  0.52512654  0.68059141     0.13400
H1643       H  0.81350061  0.54218770  0.69944851     0.13400
H1644       H  0.86288312  0.61007391  0.60545711     0.26700
H1645       H  0.81432348  0.62672168  0.62130562     0.26700
N1646       N  0.15325158  0.88044448  0.59846817    -0.36100
N1647       N  0.09723875  0.91475999  0.59841269    -0.56600
N1648       N  0.12832599  0.96279145  0.64227122    -0.36100
N1649       N  0.18733080  0.92578442  0.63696908    -0.56600
C1650       C  0.13448374  0.86232703  0.58032072     0.27500
C1651       C  0.18267730  0.86966678  0.59519318     0.27500
C1652       C  0.10532274  0.97972315  0.62689609     0.27500
C1653       C  0.14996584  0.98263398  0.65535899     0.27500
C1654       C  0.08576467  0.88535268  0.59941218     0.36100
C1655       C  0.07643368  0.93287024  0.61354982     0.36100
C1656       C  0.20674546  0.90035889  0.63875726     0.36100
C1657       C  0.19333522  0.94329735  0.66321826     0.36100
C1658       C  0.15246602  0.84093504  0.56323853    -0.21400
C1659       C  0.18306145  0.84539966  0.57297833    -0.21400
C1660       C  0.11244419  0.01153996  0.63074717    -0.21400
C1661       C  0.13997591  0.01335946  0.64928814    -0.21400
C1662       C  0.05672515  0.88481119  0.61443195    -0.22400
C1663       C  0.05039452  0.91562219  0.62277165    -0.22400
C1664       C  0.22581743  0.90233356  0.66526129    -0.22400
C1665       C  0.21741068  0.92927963  0.68071685    -0.22400
C1666       C  0.10200543  0.85991535  0.58613976    -0.17800
C1667       C  0.20474772  0.87296046  0.61967350    -0.17800
C1668       C  0.17857473  0.97243262  0.67124152    -0.17800
C1669       C  0.07836591  0.96531196  0.61117793    -0.17800
H1670       H  0.14402191  0.82178113  0.54845897     0.15100
H1671       H  0.20261639  0.82994818  0.56761295     0.15100
H1672       H  0.09898616  0.03136760  0.62187957     0.15100
H1673       H  0.15187645  0.03483487  0.65634336     0.15100
H1674       H  0.04164104  0.86464167  0.61851652     0.13400
H1675       H  0.02908849  0.92452954  0.63360804     0.13400
H1676       H  0.24309857  0.88534864  0.67332627     0.13400
H1677       H  0.22756172  0.93706039  0.70293870     0.13400
H1678       H  0.14561163  0.89486744  0.61686961     0.26700
H1679       H  0.12923762  0.93827958  0.64430436     0.26700
N1680       N  0.08255648  0.66388719  0.84942575    -0.36100
N1681       N  0.12987382  0.68355726  0.89628509    -0.56600
N1682       N  0.09900676  0.64951192  0.94836514    -0.36100
N1683       N  0.05465373  0.62685770  0.89983324    -0.56600
C1684       C  0.10668066  0.67223047  0.83054174     0.27500
C1685       C  0.06557644  0.64240427  0.83307729     0.27500
C1686       C  0.12659636  0.65769483  0.96279042     0.27500
C1687       C  0.08565651  0.62421446  0.96368658     0.27500
C1688       C  0.13795723  0.70112243  0.87053287     0.36100
C1689       C  0.14659707  0.69538594  0.92091468     0.36100
C1690       C  0.03196726  0.62772129  0.87744626     0.36100
C1691       C  0.04001788  0.62070021  0.92751234     0.36100
C1692       C  0.10461233  0.65670470  0.80151168    -0.21400
C1693       C  0.07867100  0.63757902  0.80320687    -0.21400
C1694       C  0.13056109  0.63759180  0.98869415    -0.21400
C1695       C  0.10518889  0.61633747  0.98897763    -0.21400
C1696       C  0.15960428  0.72397232  0.87859807    -0.22400
C1697       C  0.16560282  0.71999531  0.91011634    -0.22400
C1698       C  0.00282244  0.62198654  0.89054849    -0.22400
C1699       C  0.00783076  0.61838313  0.92257974    -0.22400
C1700       C  0.13034280  0.69365275  0.83888574    -0.17800
C1701       C  0.03866558  0.62728663  0.84496245    -0.17800
C1702       C  0.05595207  0.60963680  0.95477504    -0.17800
C1703       C  0.14749276  0.68289634  0.95238104    -0.17800
H1704       H  0.12056865  0.65835503  0.78149189     0.15100
H1705       H  0.07076952  0.62166317  0.78471255     0.15100
H1706       H  0.15003799  0.63770016  0.00523789     0.15100
H1707       H  0.10152473  0.59749351  0.00601797     0.15100
H1708       H  0.17118721  0.74069316  0.86298364     0.13400
H1709       H  0.18302198  0.73337586  0.92312316     0.13400
H1710       H  0.98068824  0.61953361  0.87812407     0.13400
H1711       H  0.99026056  0.61243335  0.94014501     0.13400
H1712       H  0.07767327  0.67286452  0.87202032     0.26700
H1713       H  0.08916426  0.66149898  0.92920448     0.26700
C1714       C  0.76878664  0.30722765  0.28848911     0.80800
N1715       N  0.78490396  0.31354745  0.26141994    -0.77600
C1716       C  0.81081266  0.29666019  0.25346225     0.83200
N1717       N  0.82037177  0.27280155  0.27276152    -0.77500
C1718       C  0.80411361  0.26631480  0.29974997     0.83300
N1719       N  0.77843226  0.28333280  0.30724539    -0.79200
N1720       N  0.63567497  0.42551272  0.33824696    -0.36100
N1721       N  0.57959986  0.44827106  0.36682055    -0.56600
N1722       N  0.54205656  0.39263867  0.34864465    -0.36100
N1723       N  0.59984182  0.36697791  0.32329313    -0.56600
C1724       C  0.64679271  0.44799709  0.35818311     0.27500
C1725       C  0.65871289  0.40418078  0.33462121     0.27500
C1726       C  0.52488817  0.40565200  0.37293898     0.27500
C1727       C  0.53327415  0.36200988  0.34386673     0.27500
C1728       C  0.59705606  0.47451382  0.36382142     0.36100
C1729       C  0.54959850  0.45755605  0.36770794     0.36100
C1730       C  0.62805649  0.36062931  0.30983100     0.36100
C1731       C  0.58015958  0.34404108  0.31290986     0.36100
C1732       C  0.67759727  0.44130147  0.36641771    -0.21400
C1733       C  0.68531299  0.41379737  0.35105599    -0.21400
C1734       C  0.50416571  0.38264298  0.38368944    -0.21400
C1735       C  0.50890487  0.35551438  0.36491200    -0.21400
C1736       C  0.57843580  0.50109495  0.36295700    -0.22400
C1737       C  0.54806910  0.49028205  0.36409269    -0.22400
C1738       C  0.62647746  0.33348393  0.29154490    -0.22400
C1739       C  0.59640379  0.32285536  0.29371675    -0.22400
C1740       C  0.62915053  0.47378299  0.36942967    -0.17800
C1741       C  0.65635375  0.37634769  0.31676421    -0.17800
C1742       C  0.54814636  0.34045359  0.32161616    -0.17800
C1743       C  0.52734905  0.43839087  0.38310569    -0.17800
H1744       H  0.69291932  0.45443961  0.38209316     0.15100
H1745       H  0.70769518  0.40179277  0.35266459     0.15100
H1746       H  0.48693153  0.38528952  0.40245612     0.15100
H1747       H  0.49659681  0.33327881  0.36732618     0.15100
H1748       H  0.58587979  0.52549104  0.36300282     0.13400
H1749       H  0.52740426  0.50514959  0.36461146     0.13400
H1750       H  0.64532792  0.32186895  0.27878843     0.13400
H1751       H  0.58786319  0.30114966  0.28321803     0.13400
H1752       H  0.61370141  0.42460397  0.32738220     0.26700
H1753       H  0.55873996  0.40449746  0.33503464     0.26700
C1754       C  0.70365527  0.51127074  0.47440904     0.80800
N1755       N  0.72056044  0.53809691  0.47827870    -0.77600
C1756       C  0.74371567  0.53985970  0.50040427     0.83200
N1757       N  0.74967764  0.51423112  0.51867076    -0.77500
C1758       C  0.73281073  0.48729469  0.51540887     0.83300
N1759       N  0.71006497  0.48555164  0.49284517    -0.79200
C1760       C  0.95676863  0.49924764  0.29610995     0.80800
N1761       N  0.94514843  0.49958636  0.26611415    -0.77600
C1762       C  0.95405927  0.47717626  0.24515848     0.83200
N1763       N  0.97412727  0.45409308  0.25427268    -0.77500
C1764       C  0.98553503  0.45318922  0.28434202     0.83300
N1765       N  0.97681648  0.47604274  0.30514065    -0.79200
C1766       C  0.04518707  0.27431943  0.49078575     0.80800
N1767       N  0.02946431  0.24650590  0.48955869    -0.77600
C1768       C  0.99887044  0.24462757  0.49734321     0.83200
N1769       N  0.98368613  0.27075423  0.50713874    -0.77500
C1770       C  0.99866568  0.29890265  0.50875744     0.83300
N1771       N  0.02945095  0.30084439  0.50027458    -0.79200
N1772       N  0.10774811  0.32198171  0.33800039    -0.36100
N1773       N  0.16212799  0.30573424  0.37768887    -0.56600
N1774       N  0.20133001  0.35685282  0.35305805    -0.36100
N1775       N  0.14488508  0.37845958  0.31934051    -0.56600
C1776       C  0.09543746  0.30137708  0.35928283     0.27500
C1777       C  0.08451288  0.34194861  0.32993520     0.27500
C1778       C  0.21888351  0.34653370  0.37843177     0.27500
C1779       C  0.21164863  0.38555994  0.34290011     0.27500
C1780       C  0.14521280  0.27947521  0.37319031     0.36100
C1781       C  0.19183816  0.29628467  0.38086575     0.36100
C1782       C  0.11714047  0.38415664  0.30446939     0.36100
C1783       C  0.16570420  0.39968445  0.30740587     0.36100
C1784       C  0.06367367  0.30698215  0.36321188    -0.21400
C1785       C  0.05659867  0.33243309  0.34424509    -0.21400
C1786       C  0.24164749  0.36925003  0.38425128    -0.21400
C1787       C  0.23761332  0.39329688  0.36141700    -0.21400
C1788       C  0.16389740  0.25282525  0.37448533    -0.22400
C1789       C  0.19391475  0.26358495  0.37928846    -0.22400
C1790       C  0.12012645  0.40928741  0.28359647    -0.22400
C1791       C  0.15061245  0.41893434  0.28520287    -0.22400
C1792       C  0.11320819  0.28031461  0.37790657    -0.17800
C1793       C  0.08810680  0.36945582  0.31145823    -0.17800
C1794       C  0.19747246  0.40409258  0.31752247    -0.17800
C1795       C  0.21411937  0.31628011  0.39414251    -0.17800
H1796       H  0.04768944  0.29480994  0.37909049     0.15100
H1797       H  0.03380283  0.34361959  0.34259356     0.15100
H1798       H  0.25978757  0.36825407  0.40225803     0.15100
H1799       H  0.25188943  0.41425789  0.35909896     0.15100
H1800       H  0.15662071  0.22839543  0.37367427     0.13400
H1801       H  0.21451953  0.24917805  0.38347283     0.13400
H1802       H  0.10206645  0.41994511  0.26897699     0.13400
H1803       H  0.16004969  0.43885122  0.27215544     0.13400
H1804       H  0.13104265  0.32335037  0.33058914     0.26700
H1805       H  0.18325383  0.34440121  0.34227293     0.26700
N1806       N  0.85805117  0.37677697  0.58786593    -0.36100
N1807       N  0.90589136  0.35958716  0.63673642    -0.56600
N1808       N  0.86295578  0.37086498  0.68815753    -0.36100
N1809       N  0.81837751  0.39257088  0.63880412    -0.56600
C1810       C  0.88511419  0.38207415  0.57211393     0.27500
C1811       C  0.83532120  0.39386495  0.57328394     0.27500
C1812       C  0.88950368  0.36323101  0.70459537     0.27500
C1813       C  0.84586662  0.39283427  0.70467488     0.27500
C1814       C  0.91984608  0.35210111  0.60870208     0.36100
C1815       C  0.91997645  0.34143154  0.65926094     0.36100
C1816       C  0.79700860  0.38786739  0.61570664     0.36100
C1817       C  0.80251299  0.39361964  0.66632671     0.36100
C1818       C  0.87956133  0.40218507  0.54661177    -0.21400
C1819       C  0.84804480  0.40983068  0.54745691    -0.21400
C1820       C  0.88891199  0.37984800  0.73311126    -0.21400
C1821       C  0.86191634  0.39899708  0.73283526    -0.21400
C1822       C  0.94264877  0.32920070  0.61350045    -0.22400
C1823       C  0.94319062  0.32306255  0.64538551    -0.22400
C1824       C  0.76716024  0.38529426  0.62870105    -0.22400
C1825       C  0.77064125  0.38945487  0.66098493    -0.22400
C1826       C  0.91396591  0.36722797  0.57913017    -0.17800
C1827       C  0.80379039  0.39543795  0.58388215    -0.17800
C1828       C  0.81596417  0.40570044  0.69416115    -0.17800
C1829       C  0.91419687  0.34291799  0.69255648    -0.17800
H1830       H  0.89651449  0.41057898  0.52934946     0.15100
H1831       H  0.83611902  0.42566366  0.53122624     0.15100
H1832       H  0.90670141  0.37937753  0.75150009     0.15100
H1833       H  0.85486948  0.41519528  0.75145017     0.15100
H1834       H  0.95769769  0.31812842  0.59599097     0.13400
H1835       H  0.95938707  0.30723440  0.65711224     0.13400
H1836       H  0.74511463  0.38369912  0.61596917     0.13400
H1837       H  0.75186676  0.39117510  0.67830934     0.13400
H1838       H  0.85507908  0.36134464  0.60700594     0.26700
H1839       H  0.85665839  0.36074960  0.66649979     0.26700
N1840       N  0.88926001  0.37445967  0.12345679    -0.36100
N1841       N  0.89177428  0.42291998  0.07909568    -0.56600
N1842       N  0.85917349  0.38323066  0.03163129    -0.36100
N1843       N  0.85996393  0.33147924  0.07819471    -0.56600
C1844       C  0.90808047  0.39543670  0.13809620     0.27500
C1845       C  0.89464243  0.34613988  0.13658407     0.27500
C1846       C  0.87633427  0.40394455  0.01335161     0.27500
C1847       C  0.84946023  0.35808418  0.01381587     0.27500
C1848       C  0.89230639  0.44005415  0.10580096     0.36100
C1849       C  0.88176206  0.44203530  0.05606964     0.36100
C1850       C  0.85559783  0.31610410  0.10622385     0.36100
C1851       C  0.83692466  0.32124222  0.05860964     0.36100
C1852       C  0.92612214  0.38024756  0.16091740    -0.21400
C1853       C  0.91741058  0.34883570  0.16005207    -0.21400
C1854       C  0.87720968  0.39166895  0.98266497    -0.21400
C1855       C  0.85965257  0.36338532  0.98276585    -0.21400
C1856       C  0.88292506  0.47075765  0.10011343    -0.22400
C1857       C  0.87622005  0.47212235  0.06807025    -0.22400
C1858       C  0.83049325  0.29554453  0.10424208    -0.22400
C1859       C  0.81885987  0.29854294  0.07410352    -0.22400
C1860       C  0.90543246  0.42816483  0.13347906    -0.17800
C1861       C  0.87295966  0.32154487  0.13423855    -0.17800
C1862       C  0.83272833  0.33076249  0.02645155    -0.17800
C1863       C  0.88829509  0.43423473  0.02474009    -0.17800
H1864       H  0.94227801  0.39090249  0.17765038     0.15100
H1865       H  0.92493860  0.33058443  0.17644547     0.15100
H1866       H  0.88839358  0.40235507  0.96216388     0.15100
H1867       H  0.85594684  0.34794968  0.96256767     0.15100
H1868       H  0.88212312  0.49002940  0.11700297     0.13400
H1869       H  0.86953653  0.49302288  0.05484026     0.13400
H1870       H  0.82133776  0.28016778  0.12265243     0.13400
H1871       H  0.79906854  0.28551714  0.06480093     0.13400
H1872       H  0.87053766  0.37983089  0.10845948     0.26700
H1873       H  0.85342473  0.38623906  0.05555114     0.26700
N1874       N  0.88548983  0.61477362  0.42477983    -0.36100
N1875       N  0.85089326  0.66850953  0.44378304    -0.56600
N1876       N  0.87772258  0.71061635  0.39480142    -0.36100
N1877       N  0.91139864  0.65527785  0.37339881    -0.56600
C1878       C  0.86385409  0.60131893  0.44393695     0.27500
C1879       C  0.89423379  0.59278137  0.40363614     0.27500
C1880       C  0.85010093  0.72575877  0.40200858     0.27500
C1881       C  0.88954095  0.72119874  0.36640245     0.27500
C1882       C  0.84865334  0.65015972  0.46987152     0.36100
C1883       C  0.84236027  0.69759060  0.45287945     0.36100
C1884       C  0.92720543  0.62772393  0.36979075     0.36100
C1885       C  0.92794868  0.67733344  0.35711668     0.36100
C1886       C  0.85962878  0.56992080  0.43567137    -0.21400
C1887       C  0.87911113  0.56440871  0.41015533    -0.21400
C1888       C  0.84439978  0.74716971  0.37753246    -0.21400
C1889       C  0.86938017  0.74474028  0.35557894    -0.21400
C1890       C  0.83829709  0.66731704  0.49558144    -0.22400
C1891       C  0.83537312  0.69781251  0.48530280    -0.22400
C1892       C  0.95351785  0.63209933  0.35104309    -0.22400
C1893       C  0.95420653  0.66323084  0.34321623    -0.22400
C1894       C  0.84733612  0.61741292  0.46784474    -0.17800
C1895       C  0.91600329  0.59783299  0.37917945    -0.17800
C1896       C  0.91771735  0.70879552  0.35095195    -0.17800
C1897       C  0.83161569  0.72003977  0.43081001    -0.17800
H1898       H  0.84395585  0.55294800  0.44661512     0.15100
H1899       H  0.88151907  0.54218091  0.39763702     0.15100
H1900       H  0.82452887  0.76301186  0.37568916     0.15100
H1901       H  0.87173792  0.75799884  0.33364833     0.15100
H1902       H  0.83057272  0.65795788  0.51805718     0.13400
H1903       H  0.82552347  0.71709630  0.49902585     0.13400
H1904       H  0.97013166  0.61462340  0.34274811     0.13400
H1905       H  0.97143593  0.67333140  0.32728951     0.13400
H1906       H  0.89406026  0.63774460  0.42583335     0.26700
H1907       H  0.88878708  0.69399801  0.40920350     0.26700
N1908       N  0.87484535  0.14285569  0.41188731    -0.36100
N1909       N  0.91581000  0.09350736  0.42934798    -0.56600
N1910       N  0.88631687  0.05050443  0.38034251    -0.36100
N1911       N  0.84180945  0.10216580  0.36605488    -0.56600
C1912       C  0.88842333  0.15618490  0.43751978     0.27500
C1913       C  0.85007160  0.16070942  0.40403175     0.27500
C1914       C  0.90157913  0.03021138  0.40048341     0.27500
C1915       C  0.86262690  0.03520291  0.36446581     0.27500
C1916       C  0.93225168  0.11879119  0.43959995     0.36100
C1917       C  0.93695586  0.07071167  0.42340644     0.36100
C1918       C  0.83773604  0.13182708  0.35494562     0.36100
C1919       C  0.84226376  0.08353219  0.33998921     0.36100
C1920       C  0.87151354  0.18278491  0.44653073    -0.21400
C1921       C  0.84697771  0.18549774  0.42536091    -0.21400
C1922       C  0.88763345  0.00072689  0.39695119    -0.21400
C1923       C  0.86339157  0.00378526  0.37429188    -0.21400
C1924       C  0.96396856  0.11176357  0.44115367    -0.22400
C1925       C  0.96701133  0.08138075  0.43057515    -0.22400
C1926       C  0.83556819  0.13202505  0.32201310    -0.22400
C1927       C  0.83902640  0.10138223  0.31256795    -0.22400
C1928       C  0.91843072  0.14771192  0.44839264    -0.17800
C1929       C  0.83552409  0.15875624  0.37430561    -0.17800
C1930       C  0.84181927  0.05037612  0.34132756    -0.17800
C1931       C  0.92839499  0.03891090  0.42016740    -0.17800
H1932       H  0.87739806  0.19986954  0.46469728     0.15100
H1933       H  0.83045431  0.20490771  0.42408607     0.15100
H1934       H  0.89436051  0.97919441  0.40909132     0.15100
H1935       H  0.84808927  0.98500375  0.36629854     0.15100
H1936       H  0.98296778  0.12663369  0.44933650     0.13400
H1937       H  0.98878870  0.06827287  0.42953289     0.13400
H1938       H  0.83249328  0.15217184  0.30640908     0.13400
H1939       H  0.83929250  0.09300019  0.28833202     0.13400
H1940       H  0.88428298  0.12528232  0.39751222     0.26700
H1941       H  0.89252812  0.07407397  0.37694371     0.26700
O1942       O  0.02268308  0.30059141  0.81236069    -0.78000
C1943       C  0.94566283  0.23388902  0.80507170     0.83100
O1944       O  0.06815953  0.21348601  0.73775241    -0.79100
O1945       O  0.96270675  0.21839281  0.69679877    -0.80600
O1946       O  0.96505042  0.33455832  0.71717387    -0.80400
O1947       O  0.01880667  0.33938844  0.77680419    -0.79000
Zn1948     Zn  0.01382753  0.25834104  0.78767734     1.55700
O1949       O  0.93143732  0.29414889  0.71755186    -0.80400
Cd1950     Cd  0.00822503  0.31408046  0.73400820     1.59700
Cd1951     Cd  0.03532333  0.24105932  0.71240356     1.59600
O1952       O  0.04535190  0.31845938  0.69884070    -0.80400
O1953       O  0.00413349  0.26666851  0.74230927    -1.90900
Cd1954     Cd  0.95869601  0.25399270  0.73396769     1.59900
O1955       O  0.06204593  0.27147233  0.68208993    -0.80300
O1956       O  0.93536527  0.23731321  0.77651248    -0.79000
C1957       C  0.07300392  0.21236273  0.76769051     0.83500
C1958       C  0.02369430  0.33015329  0.80548425     0.83200
O1959       O  0.97434512  0.24072219  0.81148487    -0.77900
C1960       C  0.93730725  0.32359426  0.71245305     0.84000
O1961       O  0.05449381  0.22739391  0.78718116    -0.78000
C1962       C  0.06301302  0.30164241  0.68031144     0.84100
C1963       C  0.98302109  0.20486953  0.67808802     0.84500
O1964       O  0.01233530  0.20981759  0.68124349    -0.80500
C1965       C  0.00339638  0.25584245  0.93980638     0.80800
N1966       N  0.00267769  0.28163570  0.95888732    -0.77600
C1967       C  0.98557737  0.28219535  0.98595724     0.83200
N1968       N  0.96878914  0.25654864  0.99405366    -0.77500
C1969       C  0.96957651  0.23007271  0.97603440     0.83300
N1970       N  0.98755636  0.22935465  0.94922961    -0.79200
N1971       N  0.06213506  0.40958735  0.08464298    -0.36100
N1972       N  0.07854644  0.36086740  0.12606389    -0.56600
N1973       N  0.12769666  0.40014431  0.15327840    -0.36100
N1974       N  0.11133560  0.45229395  0.11066042    -0.56600
C1975       C  0.05399540  0.38329395  0.06859604     0.27500
C1976       C  0.06951184  0.43135821  0.06268879     0.27500
C1977       C  0.13810162  0.37010764  0.15691660     0.27500
C1978       C  0.15339587  0.41891778  0.15222554     0.27500
C1979       C  0.05288960  0.34738896  0.11339311     0.36100
C1980       C  0.08810675  0.34195547  0.14963443     0.36100
C1981       C  0.09175421  0.47305181  0.09530813     0.36100
C1982       C  0.12907433  0.46791900  0.13284434     0.36100
C1983       C  0.05693657  0.38806828  0.03603761    -0.21400
C1984       C  0.06717080  0.41860247  0.03229716    -0.21400
C1985       C  0.17062889  0.36970191  0.15749732    -0.21400
C1986       C  0.18029619  0.40045039  0.15414717    -0.21400
C1987       C  0.04512619  0.32005986  0.12970487    -0.22400
C1988       C  0.06772844  0.31652039  0.15289434    -0.22400
C1989       C  0.09738503  0.50290138  0.10777066    -0.22400
C1990       C  0.12092981  0.49973724  0.13113895    -0.22400
C1991       C  0.04216407  0.35605767  0.08320211    -0.17800
C1992       C  0.07040428  0.46354971  0.06989474    -0.17800
C1993       C  0.15253019  0.45237787  0.15294265    -0.17800
C1994       C  0.11891983  0.34320763  0.16096661    -0.17800
H1995       H  0.05149627  0.37164525  0.01705525     0.15100
H1996       H  0.07039411  0.43081050  0.00987830     0.15100
H1997       H  0.18585950  0.34936477  0.16003928     0.15100
H1998       H  0.20447836  0.40824253  0.15320961     0.15100
H1999       H  0.02702191  0.30314897  0.12366430     0.13400
H2000       H  0.07054221  0.29621458  0.16833971     0.13400
H2001       H  0.08610750  0.52470421  0.10066005     0.13400
H2002       H  0.13068291  0.51876470  0.14518137     0.13400
H2003       H  0.05961884  0.41368754  0.10906661     0.26700
H2004       H  0.10436230  0.40771734  0.15370397     0.26700
C2005       C  0.98170629  0.01234278  0.24680178     0.80800
N2006       N  0.00141108  0.01744717  0.27162324    -0.77600
C2007       C  0.01339294  0.99240933  0.28800956     0.83200
N2008       N  0.00605128  0.96247833  0.27911109    -0.77500
C2009       C  0.98606838  0.95722012  0.25452939     0.83300
N2010       N  0.97403706  0.98240271  0.23898732    -0.79200
C2011       C  0.18608165  0.22896073  0.18743127     0.80800
N2012       N  0.20973023  0.22045154  0.16772581    -0.77600
C2013       C  0.22918682  0.19650625  0.17586535     0.83200
N2014       N  0.22533037  0.18151446  0.20418129    -0.77500
C2015       C  0.20201125  0.19017633  0.22431106     0.83300
N2016       N  0.18253760  0.21401377  0.21570373    -0.79200
N2017       N  0.15175686  0.07738413  0.36132881    -0.36100
N2018       N  0.11910067  0.05397768  0.41657454    -0.56600
N2019       N  0.14214851  0.10470091  0.45815131    -0.36100
N2020       N  0.17220644  0.13107663  0.40107681    -0.56600
C2021       C  0.13166473  0.05642158  0.34811401     0.27500
C2022       C  0.15872555  0.09862936  0.33853331     0.27500
C2023       C  0.11747452  0.09315704  0.47589414     0.27500
C2024       C  0.15213645  0.13317090  0.46994838     0.27500
C2025       C  0.11933050  0.02858811  0.39733383     0.36100
C2026       C  0.11229745  0.04322639  0.44577233     0.36100
C2027       C  0.18420994  0.13976378  0.37240976     0.36100
C2028       C  0.18347035  0.15216099  0.42249965     0.36100
C2029       C  0.12700851  0.06352559  0.31625709    -0.21400
C2030       C  0.14446574  0.09000379  0.31006234    -0.21400
C2031       C  0.11214764  0.11474126  0.50025110    -0.21400
C2032       C  0.13418911  0.13934259  0.49693112    -0.21400
C2033       C  0.11258870  0.00133001  0.41407241    -0.22400
C2034       C  0.10876962  0.01048544  0.44512859    -0.22400
C2035       C  0.20235483  0.16662743  0.37543726    -0.22400
C2036       C  0.20194033  0.17444047  0.40684081    -0.22400
C2037       C  0.11671347  0.03170767  0.36451792    -0.17800
C2038       C  0.17692677  0.12602554  0.34271993    -0.17800
C2039       C  0.17598734  0.15366056  0.45557874    -0.17800
C2040       C  0.10107673  0.06326165  0.46994888    -0.17800
H2041       H  0.11227216  0.05122261  0.29932440     0.15100
H2042       H  0.14560862  0.10208003  0.28735306     0.15100
H2043       H  0.09453036  0.11289550  0.51873982     0.15100
H2044       H  0.13589660  0.16003294  0.51197873     0.15100
H2045       H  0.10885815  0.97786935  0.40450106     0.13400
H2046       H  0.10161444  0.99527247  0.46458677     0.13400
H2047       H  0.21416681  0.17977433  0.35682212     0.13400
H2048       H  0.21304360  0.19525022  0.41663648     0.13400
H2049       H  0.16011267  0.07739159  0.38460206     0.26700
H2050       H  0.15231513  0.09342726  0.43877929     0.26700
C2051       C  0.24635930  0.02600968  0.02151842     0.80800
N2052       N  0.22698185  0.00674901  0.03809740    -0.77600
C2053       C  0.19540175  0.01117910  0.03755663     0.83200
N2054       N  0.18328054  0.03565026  0.02055091    -0.77500
C2055       C  0.20267290  0.05534096  0.00429850     0.83300
N2056       N  0.23395901  0.05021036  0.00480631    -0.79200
N2057       N  0.36351985  0.12585991  0.09063845    -0.36100
N2058       N  0.40239225  0.16896327  0.12914322    -0.56600
N2059       N  0.45323031  0.12156562  0.12468839    -0.36100
N2060       N  0.41147600  0.08210555  0.08457537    -0.56600
C2061       C  0.34808797  0.15338084  0.08922901     0.27500
C2062       C  0.35225267  0.10736119  0.06723187     0.27500
C2063       C  0.46769102  0.14791135  0.13669931     0.27500
C2064       C  0.47370715  0.10446621  0.10618575     0.27500
C2065       C  0.37232619  0.17624308  0.13657709     0.36100
C2066       C  0.41919222  0.17318144  0.15614532     0.36100
C2067       C  0.38696734  0.06324994  0.07777857     0.36100
C2068       C  0.43534184  0.06317268  0.09229765     0.36100
C2069       C  0.32680770  0.15284872  0.06425572    -0.21400
C2070       C  0.32972651  0.12365145  0.05003319    -0.21400
C2071       C  0.49860913  0.14726076  0.12594210    -0.21400
C2072       C  0.50222182  0.12033879  0.10654984    -0.21400
C2073       C  0.36989267  0.18511269  0.16819760    -0.22400
C2074       C  0.39944876  0.18264278  0.18077261    -0.22400
C2075       C  0.39496908  0.03183507  0.08099806    -0.22400
C2076       C  0.42569598  0.03179809  0.09052180    -0.22400
C2077       C  0.34693315  0.17381156  0.11524309    -0.17800
C2078       C  0.35910378  0.07499947  0.06509808    -0.17800
C2079       C  0.46636124  0.07417641  0.09134812    -0.17800
C2080       C  0.45240448  0.17117345  0.15731625    -0.17800
H2081       H  0.30951573  0.17071643  0.05849226     0.15100
H2082       H  0.31583517  0.11495631  0.03044536     0.15100
H2083       H  0.51665329  0.16453272  0.13092294     0.15100
H2084       H  0.52357009  0.11305000  0.09464713     0.15100
H2085       H  0.34885762  0.19156292  0.18115143     0.13400
H2086       H  0.40522248  0.18638526  0.20557796     0.13400
H2087       H  0.38072637  0.01126197  0.07594845     0.13400
H2088       H  0.43956025  0.01095861  0.09450128     0.13400
H2089       H  0.37761751  0.11868828  0.10958853     0.26700
H2090       H  0.43023993  0.11499566  0.13000804     0.26700
N2091       N  0.15300439  0.19391354  0.88578559    -0.36100
N2092       N  0.10468854  0.23152174  0.82605616    -0.56600
N2093       N  0.14245492  0.15680247  0.79282313    -0.36100
N2094       N  0.16794618  0.13357894  0.85157248    -0.56600
C2095       C  0.14017270  0.22086883  0.89720599     0.27500
C2096       C  0.16013400  0.17563832  0.91094792     0.27500
C2097       C  0.11903260  0.16882348  0.77410724     0.27500
C2098       C  0.15128623  0.12747025  0.78280450     0.27500
C2099       C  0.12722413  0.24197884  0.84562511     0.36100
C2100       C  0.11938598  0.22053335  0.80016730     0.36100
C2101       C  0.17764567  0.12674222  0.88144701     0.36100
C2102       C  0.17933809  0.11041036  0.83247012     0.36100
C2103       C  0.14017933  0.22038332  0.93012073    -0.21400
C2104       C  0.15324473  0.19190042  0.93889891    -0.21400
C2105       C  0.11233602  0.14610506  0.75121028    -0.21400
C2106       C  0.13321896  0.12060065  0.75605962    -0.21400
C2107       C  0.15640644  0.24026054  0.83104156    -0.22400
C2108       C  0.15136097  0.22643290  0.80183025    -0.22400
C2109       C  0.19464605  0.09879540  0.88145114    -0.22400
C2110       C  0.19592601  0.08864583  0.85065827    -0.22400
C2111       C  0.12201517  0.24135365  0.87836201    -0.17800
C2112       C  0.17042318  0.14396395  0.90947062    -0.17800
C2113       C  0.17376121  0.10710676  0.79919341    -0.17800
C2114       C  0.10423015  0.19939681  0.77981696    -0.17800
H2115       H  0.13002470  0.23782277  0.94593474     0.15100
H2116       H  0.15560749  0.18341396  0.96310853     0.15100
H2117       H  0.09454410  0.14768631  0.73289070     0.15100
H2118       H  0.13374059  0.09884414  0.74251997     0.15100
H2119       H  0.17903110  0.24454761  0.84195835     0.13400
H2120       H  0.16925387  0.21867218  0.78525148     0.13400
H2121       H  0.20524231  0.08690338  0.90160587     0.13400
H2122       H  0.20698206  0.06695447  0.84286640     0.13400
H2123       H  0.15388051  0.18721237  0.86198853     0.26700
H2124       H  0.15205518  0.16846603  0.81220139     0.26700
N2125       N  0.07939262  0.89237166  0.12435480    -0.36100
N2126       N  0.05895343  0.83497882  0.14913242    -0.56600
N2127       N  0.11123581  0.79709338  0.12371847    -0.36100
N2128       N  0.13403284  0.85584772  0.09870159    -0.56600
C2129       C  0.05912058  0.90237834  0.14702726     0.27500
C2130       C  0.10091769  0.91515988  0.12045411     0.27500
C2131       C  0.10344614  0.78109335  0.15095783     0.27500
C2132       C  0.14058293  0.78873990  0.11389098     0.27500
C2133       C  0.03272632  0.85198155  0.15308832     0.36100
C2134       C  0.05122094  0.80488321  0.15447438     0.36100
C2135       C  0.13750613  0.88491381  0.08565255     0.36100
C2136       C  0.15147866  0.83589723  0.08056640     0.36100
C2137       C  0.06723317  0.93254833  0.15687051    -0.21400
C2138       C  0.09371278  0.94077226  0.13979175    -0.21400
C2139       C  0.12853949  0.76147774  0.15847256    -0.21400
C2140       C  0.15157578  0.76572948  0.13474931    -0.21400
C2141       C  0.00791713  0.83270859  0.16084401    -0.22400
C2142       C  0.01916503  0.80247145  0.16049142    -0.22400
C2143       C  0.15734116  0.88350129  0.05951945    -0.22400
C2144       C  0.16612155  0.85262351  0.05623230    -0.22400
C2145       C  0.03404332  0.88420125  0.15898860    -0.17800
C2146       C  0.12603790  0.91340912  0.09890270    -0.17800
C2147       C  0.15699395  0.80349742  0.08751574    -0.17800
C2148       C  0.07368006  0.78465223  0.16743392    -0.17800
H2149       H  0.05552280  0.94691364  0.17461295     0.15100
H2150       H  0.10648300  0.96280171  0.14172450     0.15100
H2151       H  0.13007847  0.74566037  0.17868047     0.15100
H2152       H  0.17436170  0.75442621  0.13398905     0.15100
H2153       H  0.98572446  0.84020588  0.17017338     0.13400
H2154       H  0.00667821  0.78192053  0.16924288     0.13400
H2155       H  0.16527762  0.90289460  0.04473083     0.13400
H2156       H  0.18247663  0.84392194  0.03855280     0.13400
H2157       H  0.07858021  0.87138449  0.11144018     0.26700
H2158       H  0.09691390  0.81308168  0.11167107     0.26700
N2159       N  0.86074487  0.11030788  0.16454891    -0.36100
N2160       N  0.80938239  0.13912136  0.12832828    -0.56600
N2161       N  0.85793767  0.15945741  0.08386893    -0.36100
N2162       N  0.90849336  0.13334115  0.12207001    -0.56600
C2163       C  0.83577134  0.10685702  0.18416536     0.27500
C2164       C  0.88696524  0.10779855  0.18278420     0.27500
C2165       C  0.83485618  0.18107833  0.08117169     0.27500
C2166       C  0.88478846  0.17413003  0.07549354     0.27500
C2167       C  0.79310370  0.11670048  0.14507839     0.36100
C2168       C  0.79177878  0.14946896  0.10303875     0.36100
C2169       C  0.92600604  0.11355742  0.13960845     0.36100
C2170       C  0.92327879  0.13661242  0.09391240     0.36100
C2171       C  0.84619061  0.10301729  0.21514189    -0.21400
C2172       C  0.87828291  0.10334561  0.21433731    -0.21400
C2173       C  0.84770530  0.21022982  0.07298395    -0.21400
C2174       C  0.87928807  0.20555476  0.06852219    -0.21400
C2175       C  0.76414423  0.11294932  0.13034225    -0.22400
C2176       C  0.76323284  0.13361827  0.10407315    -0.22400
C2177       C  0.95271759  0.10475735  0.12271744    -0.22400
C2178       C  0.95043649  0.11873134  0.09320296    -0.22400
C2179       C  0.80454902  0.10159791  0.17408240    -0.17800
C2180       C  0.91793763  0.10444363  0.17084233    -0.17800
C2181       C  0.91334378  0.15844950  0.07102646    -0.17800
C2182       C  0.80270285  0.17307974  0.08021020    -0.17800
H2183       H  0.83214516  0.09896940  0.23607367     0.15100
H2184       H  0.89304748  0.09902699  0.23475306     0.15100
H2185       H  0.83537989  0.23224578  0.06910338     0.15100
H2186       H  0.89619815  0.22299131  0.06063800     0.15100
H2187       H  0.74552398  0.09720570  0.13781396     0.13400
H2188       H  0.74391096  0.13627028  0.08757632     0.13400
H2189       H  0.97189003  0.08993256  0.13059391     0.13400
H2190       H  0.96736082  0.11696289  0.07404023     0.13400
H2191       H  0.85972387  0.11056722  0.13976519     0.26700
H2192       H  0.85521659  0.13519829  0.08761430     0.26700
C2193       C  0.33544440  0.05328106  0.05191843     0.00400
C2194       C  0.32925486  0.05399414  0.01918677    -0.11500
C2195       C  0.30157657  0.04105250  0.00728058     0.02600
C2196       C  0.28013561  0.02663618  0.02850247     0.00300
C2197       C  0.28909511  0.02132560  0.06024116    -0.11400
C2198       C  0.31617361  0.03530492  0.07231850     0.02500
H2199       H  0.34434940  0.06740965  0.00345884     0.15500
H2200       H  0.27303949  0.00993534  0.07671142     0.15500
C2201       C  0.32167382  0.03393201  0.10626903     0.37100
C2202       C  0.29441068  0.04569050  0.97394781     0.37000
N2203       N  0.32600930  0.03286477  0.13346949    -0.43200
N2204       N  0.28867512  0.04973930  0.94730429    -0.43200
C2205       C  0.14157311  0.94291274  0.08908961     0.00400
C2206       C  0.12614053  0.96269398  0.06747220    -0.11500
C2207       C  0.14256726  0.98637238  0.05134068     0.02600
C2208       C  0.17518568  0.99012083  0.05684423     0.00300
C2209       C  0.18965584  0.97190887  0.08081224    -0.11400
C2210       C  0.17313272  0.94848958  0.09692499     0.02500
H2211       H  0.10167164  0.95832588  0.06179606     0.15500
H2212       H  0.21430302  0.97514083  0.08638234     0.15500
C2213       C  0.18940043  0.92922607  0.12009992     0.37100
C2214       C  0.12542924  0.00495729  0.02833313     0.37000
N2215       N  0.20237335  0.91371893  0.13861748    -0.43200
N2216       N  0.11122636  0.01973542  0.01014451    -0.43200
C2217       C  0.19044857  0.08226715  0.98600339     0.00400
C2218       C  0.16198609  0.07894132  0.96963988    -0.11500
C2219       C  0.15324042  0.10109014  0.94667903     0.02600
C2220       C  0.17359465  0.12641686  0.93958871     0.00300
C2221       C  0.20025981  0.13157763  0.95810970    -0.11400
C2222       C  0.20852370  0.11002646  0.98169406     0.02500
H2223       H  0.14765177  0.05809075  0.97317717     0.15500
H2224       H  0.21544577  0.15153653  0.95296895     0.15500
C2225       C  0.23575550  0.11695979  0.00084686     0.37100
C2226       C  0.12445161  0.09636207  0.92913615     0.37000
N2227       N  0.25739144  0.12283571  0.01636403    -0.43200
N2228       N  0.10134391  0.09270365  0.91512653    -0.43200
C2229       C  0.19761269  0.17450395  0.25558957     0.00400
C2230       C  0.16945866  0.18045952  0.27210981    -0.11500
C2231       C  0.16304571  0.16577550  0.30100875     0.02600
C2232       C  0.18472945  0.14421317  0.31376654     0.00300
C2233       C  0.21332418  0.13881802  0.29830865    -0.11400
C2234       C  0.22018989  0.15401306  0.26952001     0.02500
H2235       H  0.15191785  0.19627495  0.26228725     0.15500
H2236       H  0.23016455  0.12257883  0.30873183     0.15500
C2237       C  0.25072294  0.14846716  0.25559479     0.37100
C2238       C  0.13351418  0.17229449  0.31661980     0.37000
N2239       N  0.27531717  0.14402811  0.24471866    -0.43200
N2240       N  0.10975135  0.17747660  0.32892572    -0.43200
C2241       C  0.25687017  0.18982985  0.15631686     0.00400
C2242       C  0.27312544  0.21539129  0.14255410    -0.11500
C2243       C  0.30237752  0.21081750  0.12824791     0.02600
C2244       C  0.31517722  0.18029048  0.12732249     0.00300
C2245       C  0.29816067  0.15454620  0.13941017    -0.11400
C2246       C  0.26912686  0.15901215  0.15376446     0.02500
H2247       H  0.26375097  0.23916546  0.14437498     0.15500
H2248       H  0.30807127  0.13092452  0.13826066     0.15500
C2249       C  0.25254395  0.13160102  0.16556737     0.37100
C2250       C  0.31920918  0.23762818  0.11556796     0.37000
N2251       N  0.23939183  0.10954358  0.17495824    -0.43200
N2252       N  0.33271494  0.25914002  0.10544174    -0.43200
C2253       C  0.03853657  0.99778919  0.31123305     0.00400
C2254       C  0.03405941  0.02110519  0.33437450    -0.11500
C2255       C  0.05891369  0.03077084  0.35359952     0.02600
C2256       C  0.08895713  0.01708308  0.34946706     0.00300
C2257       C  0.09309129  0.99256249  0.32760128    -0.11400
C2258       C  0.06813354  0.98277957  0.30839882     0.02500
H2259       H  0.01138091  0.03261096  0.33658680     0.15500
H2260       H  0.11625231  0.98240308  0.32428294     0.15500
C2261       C  0.07455591  0.95959228  0.28402598     0.37100
C2262       C  0.05341735  0.05614553  0.37598103     0.37000
N2263       N  0.08020156  0.94117030  0.26447352    -0.43200
N2264       N  0.04885305  0.07643330  0.39389288    -0.43200
C2265       C  0.97112913  0.03823625  0.22572730     0.00400
C2266       C  0.96700286  0.06896989  0.23768996    -0.11500
C2267       C  0.95261554  0.09231075  0.21890295     0.02600
C2268       C  0.93990921  0.08400484  0.18895411     0.00300
C2269       C  0.94610739  0.05406625  0.17640825    -0.11400
C2270       C  0.96349028  0.03215596  0.19348212     0.02500
H2271       H  0.97434851  0.07457260  0.26176522     0.15500
H2272       H  0.93753514  0.04784092  0.15288210     0.15500
C2273       C  0.97501157  0.00493094  0.17628678     0.37100
C2274       C  0.95032081  0.12413586  0.23109113     0.37000
N2275       N  0.98474345  0.98385449  0.16173904    -0.43200
N2276       N  0.94853959  0.14960740  0.24097710    -0.43200
C2277       C  0.01590848  0.89555384  0.18667718     0.26000
C2278       C  0.98599838  0.90844765  0.18239750    -0.11500
C2279       C  0.97095157  0.92335546  0.20791179     0.02600
C2280       C  0.98700777  0.92666366  0.23729131     0.00300
C2281       C  0.01295756  0.90709366  0.24312975    -0.11400
C2282       C  0.02813378  0.89232850  0.21776094     0.02500
H2283       H  0.97539593  0.90856342  0.15890199     0.15500
H2284       H  0.02417714  0.90710908  0.26631010     0.15500
C2285       C  0.05761813  0.87648075  0.22371785     0.37100
C2286       C  0.94154683  0.93923928  0.20212448     0.37000
N2287       N  0.08131940  0.86398959  0.22856148    -0.43200
N2288       N  0.91872305  0.95343419  0.19791599    -0.43200
C2289       C  0.16687444  0.25675530  0.18023291     0.00400
C2290       C  0.15937545  0.27722164  0.20544305    -0.11500
C2291       C  0.14365441  0.30549714  0.19973093     0.02600
C2292       C  0.13416176  0.31293529  0.16863809     0.00300
C2293       C  0.14097904  0.29227638  0.14346861    -0.11400
C2294       C  0.15759301  0.26443308  0.14889302     0.02500
H2295       H  0.16706025  0.27183328  0.22948597     0.15500
H2296       H  0.13406923  0.29850116  0.11940797     0.15500
C2297       C  0.16491981  0.24454376  0.12190903     0.37100
C2298       C  0.13886162  0.32711365  0.22575532     0.37000
N2299       N  0.17093804  0.22889278  0.10012627    -0.43200
N2300       N  0.13553353  0.34453007  0.24668096    -0.43200
C2301       C  0.99791144  0.30088432  0.01223196     0.00400
C2302       C  0.02817014  0.29294147  0.02261234    -0.11500
C2303       C  0.04190589  0.30872913  0.04798163     0.02600
C2304       C  0.02531368  0.33331035  0.06304394     0.00300
C2305       C  0.99436581  0.34023390  0.05379950    -0.11400
C2306       C  0.98028469  0.32357996  0.02880516     0.02500
H2307       H  0.04121591  0.27435561  0.01062603     0.15500
H2308       H  0.98172347  0.35930114  0.06538831     0.15500
C2309       C  0.94828596  0.33041338  0.02016044     0.37100
C2310       C  0.07365182  0.30049502  0.05681823     0.37000
N2311       N  0.92250210  0.33558042  0.01333447    -0.43200
N2312       N  0.09903614  0.29361799  0.06377097    -0.43200
C2313       C  0.02898822  0.25380594  0.91574500     0.00400
C2314       C  0.03880433  0.22379685  0.90554603    -0.11500
C2315       C  0.06836890  0.21957686  0.89186064     0.02600
C2316       C  0.08904032  0.24563963  0.88891806     0.00300
C2317       C  0.07785468  0.27603647  0.89500930    -0.11400
C2318       C  0.04779504  0.28044761  0.90769569     0.02500
H2319       H  0.02422590  0.20322222  0.90983506     0.15500
H2320       H  0.09291182  0.29625334  0.89057864     0.15500
C2321       C  0.03739741  0.31254067  0.91284019     0.37100
C2322       C  0.07692717  0.18827254  0.88107306     0.37000
N2323       N  0.02905188  0.33823300  0.91707009    -0.43200
N2324       N  0.08357789  0.16330244  0.87203401    -0.43200
C2325       C  0.96114225  0.20102175  0.99294579     0.00400
C2326       C  0.97758777  0.19582137  0.02146045    -0.11500
C2327       C  0.96324517  0.18075630  0.04714267     0.02600
C2328       C  0.93298985  0.16778773  0.04332131     0.00300
C2329       C  0.91863498  0.16883950  0.01305018    -0.11400
C2330       C  0.93217217  0.18609264  0.98810107     0.02500
H2331       H  0.99983357  0.20778171  0.02526750     0.15500
H2332       H  0.89538489  0.15884970  0.00991205     0.15500
C2333       C  0.91460125  0.19106007  0.95920624     0.37100
C2334       C  0.97816197  0.18331772  0.07793318     0.37000
N2335       N  0.90056810  0.19516778  0.93600227    -0.43200
N2336       N  0.99016768  0.18551147  0.10256484    -0.43200
C2337       C  0.97982208  0.32692712  0.51703338     0.00400
C2338       C  0.99098328  0.34831800  0.53983891    -0.11500
C2339       C  0.96968903  0.36666290  0.55741818     0.02600
C2340       C  0.93702910  0.36224935  0.55286393     0.00300
C2341       C  0.92672388  0.34554600  0.52603944    -0.11400
C2342       C  0.94796792  0.32843118  0.50766517     0.02500
H2343       H  0.01564525  0.34827863  0.54625461     0.15500
H2344       H  0.90179961  0.34303970  0.52139308     0.15500
C2345       C  0.93602563  0.31028698  0.48110047     0.37100
C2346       C  0.98147589  0.38646376  0.58274659     0.37000
N2347       N  0.92655903  0.29567004  0.45987271    -0.43200
N2348       N  0.99092320  0.40219291  0.60315225    -0.43200
C2349       C  0.98028790  0.21798290  0.48587863     0.00400
C2350       C  0.95699638  0.20531840  0.50564798    -0.11500
C2351       C  0.93592848  0.18292345  0.49387562     0.02600
C2352       C  0.93869074  0.17249183  0.46212804     0.00300
C2353       C  0.96131994  0.18598879  0.44212500    -0.11400
C2354       C  0.98196459  0.20870491  0.45356885     0.02500
H2355       H  0.95453086  0.21387417  0.52989744     0.15500
H2356       H  0.96254053  0.17889613  0.41729554     0.15500
C2357       C  0.00270418  0.22385914  0.43092895     0.37100
C2358       C  0.90981036  0.17393549  0.51360244     0.37000
N2359       N  0.01897249  0.23614446  0.41261877    -0.43200
N2360       N  0.88795257  0.16864880  0.52901509    -0.43200
C2361       C  0.07451487  0.27627362  0.47171408     0.00400
C2362       C  0.08520913  0.24806466  0.45732933    -0.11500
C2363       C  0.09884828  0.24849702  0.42708513     0.02600
C2364       C  0.10375882  0.27764178  0.41187991     0.00300
C2365       C  0.09998397  0.30571295  0.42962701    -0.11400
C2366       C  0.08547372  0.30527376  0.45947164     0.02500
H2367       H  0.07924434  0.22533835  0.46767008     0.15500
H2368       H  0.10653558  0.32822872  0.41916535     0.15500
C2369       C  0.08047316  0.33489211  0.47581842     0.37100
C2370       C  0.10514308  0.21876099  0.41156473     0.37000
N2371       N  0.07657173  0.35854419  0.48910655    -0.43200
N2372       N  0.11018440  0.19456091  0.39978461    -0.43200
C2373       C  0.94657320  0.52335535  0.31881001     0.00400
C2374       C  0.91609616  0.53554260  0.31557287    -0.11500
C2375       C  0.90556203  0.55948374  0.33548377     0.02600
C2376       C  0.92536599  0.57064432  0.35978921     0.00300
C2377       C  0.95533642  0.55784992  0.36392860    -0.11400
C2378       C  0.96655775  0.53506313  0.34291433     0.02500
H2379       H  0.90061472  0.52675727  0.29710042     0.15500
H2380       H  0.97061566  0.56725221  0.38230540     0.15500
C2381       C  0.99938228  0.52673564  0.34473108     0.37100
C2382       C  0.87464968  0.57263656  0.33024010     0.37000
N2383       N  0.02584195  0.52064721  0.34608881    -0.43200
N2384       N  0.84986710  0.58309150  0.32611574    -0.43200
C2385       C  0.91700612  0.44984481  0.15774264     0.00400
C2386       C  0.89617512  0.45964745  0.18150301    -0.11500
C2387       C  0.90765112  0.47312975  0.20938706     0.02600
C2388       C  0.94040330  0.47573123  0.21348038     0.00300
C2389       C  0.96072918  0.46972609  0.18793479    -0.11400
C2390       C  0.94910675  0.45716019  0.15972758     0.02500
H2391       H  0.87128613  0.45468443  0.17917069     0.15500
H2392       H  0.98587131  0.47259508  0.19093086     0.15500
C2393       C  0.97065979  0.44970503  0.13420705     0.37100
C2394       C  0.88564977  0.48086088  0.23440637     0.37000
N2395       N  0.98794659  0.44396325  0.11371644    -0.43200
N2396       N  0.86776999  0.48715735  0.25419164    -0.43200
C2397       C  0.00875530  0.42865414  0.29326390     0.00400
C2398       C  0.01895226  0.40719170  0.26966633    -0.11500
C2399       C  0.04386541  0.38652917  0.27543517     0.02600
C2400       C  0.05954257  0.38795109  0.30478909     0.00300
C2401       C  0.04838930  0.40767771  0.32896657    -0.11400
C2402       C  0.02252812  0.42711856  0.32395437     0.02500
H2403       H  0.00796216  0.40683130  0.24637583     0.15500
H2404       H  0.05989644  0.40755154  0.35204222     0.15500
C2405       C  0.01042867  0.44394674  0.35124585     0.37100
C2406       C  0.05316757  0.36446935  0.25093619     0.37000
N2407       N  0.00078584  0.45669684  0.37360196    -0.43200
N2408       N  0.06025950  0.34663893  0.23130029    -0.43200
C2409       C  0.74263078  0.45958800  0.53405588     0.00400
C2410       C  0.75322456  0.43226706  0.51829413    -0.11500
C2411       C  0.77167788  0.40981776  0.53443290     0.02600
C2412       C  0.78035598  0.41526794  0.56643867     0.00300
C2413       C  0.76769268  0.44161376  0.58243327    -0.11400
C2414       C  0.74825173  0.46301199  0.56685424     0.02500
H2415       H  0.74878207  0.42945385  0.49301116     0.15500
H2416       H  0.77380743  0.44618039  0.60708927     0.15500
C2417       C  0.73492671  0.48889885  0.58482682     0.37100
C2418       C  0.78235980  0.38212159  0.51751851     0.37000
N2419       N  0.72397974  0.50946419  0.59922918    -0.43200
N2420       N  0.79097480  0.35990528  0.50400315    -0.43200
C2421       C  0.76669786  0.56618977  0.49893568     0.00400
C2422       C  0.76485535  0.58663844  0.47264317    -0.11500
C2423       C  0.79071340  0.60419560  0.46311365     0.02600
C2424       C  0.81877120  0.60252283  0.48078328     0.00300
C2425       C  0.81953646  0.58583177  0.50953225    -0.11400
C2426       C  0.79349561  0.56789073  0.51902974     0.02500
H2427       H  0.74408107  0.58712208  0.45776940     0.15500
H2428       H  0.84074819  0.58591847  0.52383002     0.15500
C2429       C  0.79527080  0.55124273  0.54901669     0.37100
C2430       C  0.78871406  0.62180586  0.43361546     0.37000
N2431       N  0.79665494  0.53800639  0.57311431    -0.43200
N2432       N  0.78731753  0.63576153  0.40992916    -0.43200
C2433       C  0.64179949  0.49202817  0.39675232     0.00400
C2434       C  0.66761964  0.51189009  0.39172198    -0.11500
C2435       C  0.68731463  0.52023931  0.41705439     0.02600
C2436       C  0.68081444  0.50883219  0.44812556     0.00300
C2437       C  0.65319197  0.49185147  0.45355516    -0.11400
C2438       C  0.63365662  0.48342612  0.42831613     0.02500
H2439       H  0.67420377  0.51812269  0.36755138     0.15500
H2440       H  0.64774701  0.48362337  0.47743323     0.15500
C2441       C  0.60717516  0.46338594  0.43547106     0.37100
C2442       C  0.71576515  0.53725491  0.40959095     0.37000
N2443       N  0.58605815  0.44741545  0.44186660    -0.43200
N2444       N  0.73856561  0.55071012  0.40318291    -0.43200
C2445       C  0.81264397  0.23994781  0.32021355     0.00400
C2446       C  0.78839971  0.22042230  0.33150185    -0.11500
C2447       C  0.79514594  0.19445701  0.35059798     0.02600
C2448       C  0.82643716  0.18843510  0.35899990     0.00300
C2449       C  0.85056216  0.20860543  0.34881867    -0.11400
C2450       C  0.84391286  0.23430339  0.32931460     0.02500
H2451       H  0.76426093  0.22494011  0.32460705     0.15500
H2452       H  0.87472344  0.20349039  0.35521106     0.15500
C2453       C  0.86935385  0.25463781  0.31941910     0.37100
C2454       C  0.76996966  0.17375220  0.36040464     0.37000
N2455       N  0.88973053  0.27094676  0.31150662    -0.43200
N2456       N  0.74981795  0.15709144  0.36816282    -0.43200
C2457       C  0.68561580  0.35969152  0.30940502     0.00400
C2458       C  0.69732281  0.33878121  0.33218931    -0.11500
C2459       C  0.72480986  0.32202657  0.32654313     0.02600
C2460       C  0.74045116  0.32547564  0.29682320     0.00300
C2461       C  0.72835833  0.34671858  0.27412591    -0.11400
C2462       C  0.70132074  0.36407376  0.28037409     0.02500
H2463       H  0.68499578  0.33592204  0.35466303     0.15500
H2464       H  0.73981686  0.34975987  0.25127128     0.15500
C2465       C  0.69021262  0.38611544  0.25668992     0.37100
C2466       C  0.73616401  0.30222281  0.35214575     0.37000
N2467       N  0.68191986  0.40384012  0.23746685    -0.43200
N2468       N  0.74508401  0.28652437  0.37285281    -0.43200
C2469       C  0.82753442  0.30332837  0.22337593     0.00400
C2470       C  0.84590547  0.27933230  0.20924834    -0.11500
C2471       C  0.86100451  0.28434490  0.18002110     0.02600
C2472       C  0.85772294  0.31364508  0.16477072     0.00300
C2473       C  0.83948045  0.33747889  0.17870969    -0.11400
C2474       C  0.82479921  0.33289722  0.20783362     0.02500
H2475       H  0.84813576  0.25648306  0.22073950     0.15500
H2476       H  0.83709292  0.36012730  0.16676162     0.15500
C2477       C  0.80812877  0.35955993  0.22121901     0.37100
C2478       C  0.87937501  0.25931921  0.16592927     0.37000
N2479       N  0.79493843  0.38113812  0.23164731    -0.43200
N2480       N  0.89404807  0.23929670  0.15445525    -0.43200
C2481       C  0.95901867  0.52440306  0.68333110     0.00400
C2482       C  0.95005202  0.55605403  0.68040088    -0.11500
C2483       C  0.92769692  0.56512431  0.65833851     0.02600
C2484       C  0.91347287  0.54216462  0.63871367     0.00300
C2485       C  0.92273843  0.51039813  0.64094112    -0.11400
C2486       C  0.94587168  0.50138090  0.66296905     0.02500
H2487       H  0.96070945  0.57396793  0.69541731     0.15500
H2488       H  0.91129924  0.49274060  0.62626950     0.15500
C2489       C  0.95472181  0.46850187  0.66522414     0.37100
C2490       C  0.91856914  0.59805869  0.65749195     0.37000
N2491       N  0.96179146  0.44213708  0.66702085    -0.43200
N2492       N  0.91127025  0.62440632  0.65694350    -0.43200
C2493       C  0.06634679  0.49362456  0.70122843     0.00400
C2494       C  0.07181268  0.50064699  0.66901650    -0.11500
C2495       C  0.09228042  0.48228990  0.65092045     0.02600
C2496       C  0.10740255  0.45628453  0.66532122     0.00300
C2497       C  0.10625401  0.45301696  0.69868684    -0.11400
C2498       C  0.08583126  0.47168557  0.71686086     0.02500
H2499       H  0.05786591  0.51869034  0.65726227     0.15500
H2500       H  0.11855125  0.43353878  0.70996694     0.15500
C2501       C  0.08300618  0.46554456  0.75057611     0.37100
C2502       C  0.09423047  0.48844649  0.61711919     0.37000
N2503       N  0.08113554  0.46063830  0.77764387    -0.43200
N2504       N  0.09594264  0.49374807  0.59011248    -0.43200
C2505       C  0.00928036  0.55585481  0.78052172     0.00400
C2506       C  0.00106031  0.58743632  0.77426654    -0.11500
C2507       C  0.00779503  0.61118498  0.79631468     0.02600
C2508       C  0.02291024  0.60320907  0.82502168     0.00300
C2509       C  0.02798733  0.57122209  0.83260799    -0.11400
C2510       C  0.02122225  0.54749796  0.81054688     0.02500
H2511       H  0.99137428  0.59387032  0.75125053     0.15500
H2512       H  0.03910261  0.56494997  0.85499153     0.15500
C2513       C  0.02682124  0.51490130  0.81904543     0.37100
C2514       C  0.00112676  0.64365650  0.78810424     0.37000
N2515       N  0.03086433  0.48875616  0.82607178    -0.43200
N2516       N  0.99585401  0.66966305  0.78140289    -0.43200
C2517       C  0.36095569  0.50721624  0.57969568     0.00400
C2518       C  0.34696138  0.47757837  0.57678973    -0.11500
C2519       C  0.33380443  0.46818714  0.54773425     0.02600
C2520       C  0.33444989  0.48916084  0.52108772     0.00300
C2521       C  0.35241905  0.51680546  0.52327212    -0.11400
C2522       C  0.36505973  0.52627031  0.55229955     0.02500
H2523       H  0.34494032  0.46249868  0.59761030     0.15500
H2524       H  0.35418003  0.53273948  0.50309537     0.15500
C2525       C  0.37947008  0.55714417  0.55385518     0.37100
C2526       C  0.31850204  0.43771445  0.54699081     0.37000
N2527       N  0.39072291  0.58201847  0.55487709    -0.43200
N2528       N  0.30616633  0.41334101  0.54700809    -0.43200
C2529       C  0.23433808  0.44990025  0.48628541     0.00400
C2530       C  0.23926188  0.41998854  0.49960884    -0.11500
C2531       C  0.21629422  0.40574574  0.51821521     0.02600
C2532       C  0.18718042  0.42112622  0.52285263     0.00300
C2533       C  0.18106023  0.44969612  0.50717175    -0.11400
C2534       C  0.20440812  0.46424934  0.48881660     0.02500
H2535       H  0.26206760  0.40874718  0.49739773     0.15500
H2536       H  0.15848479  0.46115983  0.51031668     0.15500
C2537       C  0.19770719  0.49480182  0.47500956     0.37100
C2538       C  0.22414406  0.37641127  0.53401315     0.37000
N2539       N  0.19229825  0.51923766  0.46385850    -0.43200
N2540       N  0.23048390  0.35286792  0.54650529    -0.43200
C2541       C  0.26544252  0.67799904  0.68649984     0.00400
C2542       C  0.28856998  0.68377336  0.66334523    -0.11500
C2543       C  0.31189173  0.66152256  0.65708531     0.02600
C2544       C  0.31211851  0.63271466  0.67389587     0.00300
C2545       C  0.28812260  0.62571113  0.69531443    -0.11400
C2546       C  0.26476947  0.64792573  0.70183160     0.02500
H2547       H  0.28928424  0.70615966  0.65086609     0.15500
H2548       H  0.28836190  0.60325867  0.70783982     0.15500
C2549       C  0.24112805  0.63889675  0.72480835     0.37100
C2550       C  0.33597722  0.66910458  0.63403947     0.37000
N2551       N  0.22242539  0.63140348  0.74335691    -0.43200
N2552       N  0.35535216  0.67514367  0.61567230    -0.43200
C2553       C  0.18823305  0.72115656  0.76042203     0.00400
C2554       C  0.20084738  0.70285511  0.78518835    -0.11500
C2555       C  0.18260795  0.69437988  0.81129781     0.02600
C2556       C  0.15133374  0.70506059  0.81331385     0.00300
C2557       C  0.13900620  0.72453854  0.78940554    -0.11400
C2558       C  0.15702849  0.73235860  0.76273361     0.02500
H2559       H  0.22478803  0.69420608  0.78363391     0.15500
H2560       H  0.11476854  0.73231320  0.79092853     0.15500
C2561       C  0.14183966  0.74924642  0.73711085     0.37100
C2562       C  0.19598878  0.67345569  0.83491305     0.37000
N2563       N  0.12906565  0.76242343  0.71671200    -0.43200
N2564       N  0.20660204  0.65681272  0.85397361    -0.43200
C2565       C  0.22104590  0.78539090  0.66916050     0.00400
C2566       C  0.19362563  0.80308513  0.67403976    -0.11500
C2567       C  0.18866948  0.83142496  0.65841587     0.02600
C2568       C  0.21118311  0.84285510  0.63660756     0.00300
C2569       C  0.23876241  0.82561077  0.63133806    -0.11400
C2570       C  0.24400307  0.79699807  0.64759468     0.02500
H2571       H  0.17566870  0.79491957  0.69032551     0.15500
H2572       H  0.25618467  0.83463051  0.61482620     0.15500
C2573       C  0.27350093  0.78104284  0.64250040     0.37100
C2574       C  0.16018198  0.84857803  0.66552765     0.37000
N2575       N  0.29737770  0.76868254  0.63823724    -0.43200
N2576       N  0.13747098  0.86248044  0.67113207    -0.43200
C2577       C  0.25288754  0.58659151  0.39464159     0.00400
C2578       C  0.25078777  0.55551546  0.38306062    -0.11500
C2579       C  0.26577281  0.53069737  0.39858996     0.02600
C2580       C  0.28211439  0.53635210  0.42718481     0.00300
C2581       C  0.28758915  0.56775685  0.43669839    -0.11400
C2582       C  0.27337401  0.59297560  0.42026729     0.02500
H2583       H  0.23567924  0.55017372  0.36297634     0.15500
H2584       H  0.30073529  0.57246618  0.45829581     0.15500
C2585       C  0.27862773  0.62495513  0.43095224     0.37100
C2586       C  0.26227975  0.49919788  0.38588443     0.37000
N2587       N  0.28284840  0.65069365  0.43923480    -0.43200
N2588       N  0.25964210  0.47391828  0.37577421    -0.43200
C2589       C  0.09006794  0.68602361  0.50561676     0.00400
C2590       C  0.07688066  0.66501584  0.48333074    -0.11500
C2591       C  0.09211093  0.65829814  0.45470117     0.02600
C2592       C  0.12128733  0.67239699  0.44802615     0.00300
C2593       C  0.13530987  0.69223272  0.47044298    -0.11400
C2594       C  0.12015352  0.69919416  0.49911355     0.02500
H2595       H  0.05407701  0.65446782  0.48764204     0.15500
H2596       H  0.15802230  0.70265075  0.46523294     0.15500
C2597       C  0.13623360  0.72022613  0.52076248     0.37100
C2598       C  0.07728779  0.63699957  0.43240024     0.37000
N2599       N  0.14928883  0.73721962  0.53782450    -0.43200
N2600       N  0.06540758  0.61998367  0.41450746    -0.43200
C2601       C  0.98874026  0.68482150  0.56116713     0.00400
C2602       C  0.97456743  0.67388067  0.53311713    -0.11500
C2603       C  0.94343341  0.66380273  0.53308490     0.02600
C2604       C  0.92608580  0.66399490  0.56159107     0.00300
C2605       C  0.93987834  0.67573236  0.58950899    -0.11400
C2606       C  0.97092941  0.68628822  0.58955321     0.02500
H2607       H  0.98779034  0.67333660  0.51101437     0.15500
H2608       H  0.92661943  0.67556985  0.61159580     0.15500
C2609       C  0.98414555  0.69715246  0.61929437     0.37100
C2610       C  0.93048556  0.65205918  0.50379429     0.37000
N2611       N  0.99462229  0.70594338  0.64313789    -0.43200
N2612       N  0.92106763  0.64222554  0.48000512    -0.43200
C2613       C  0.06524694  0.76654310  0.58236624     0.00400
C2614       C  0.04868584  0.79102203  0.56744602    -0.11500
C2615       C  0.05980873  0.82191578  0.56869469     0.02600
C2616       C  0.08746403  0.82838127  0.58588005     0.00300
C2617       C  0.10223901  0.80417885  0.60326311    -0.11400
C2618       C  0.09175300  0.77317072  0.60100153     0.02500
H2619       H  0.02845214  0.78559208  0.55272114     0.15500
H2620       H  0.12291042  0.80932991  0.61743183     0.15500
C2621       C  0.10924381  0.74846989  0.61678684     0.37100
C2622       C  0.04322028  0.84600980  0.55106375     0.37000
N2623       N  0.12340643  0.72880396  0.62947835    -0.43200
N2624       N  0.02934785  0.86512200  0.53724906    -0.43200
C2625       C  0.71354999  0.26985091  0.69162846     0.00400
C2626       C  0.68142235  0.27497845  0.69705929    -0.11500
C2627       C  0.66429635  0.29521016  0.67712800     0.02600
C2628       C  0.67976701  0.31138152  0.65219399     0.00300
C2629       C  0.71124459  0.30502703  0.64585600    -0.11400
C2630       C  0.72779654  0.28347761  0.66428893     0.02500
H2631       H  0.66997171  0.26412105  0.71738969     0.15500
H2632       H  0.72305767  0.31726636  0.62652621     0.15500
C2633       C  0.75887255  0.27509948  0.65341506     0.37100
C2634       C  0.63137865  0.30038678  0.68356983     0.37000
N2635       N  0.78344866  0.26834279  0.64384200    -0.43200
N2636       N  0.60500138  0.30460564  0.68867690    -0.43200
C2637       C  0.72593684  0.18636091  0.77261067     0.00400
C2638       C  0.70670618  0.19552390  0.79794963    -0.11500
C2639       C  0.69455100  0.17309948  0.81895390     0.02600
C2640       C  0.70153226  0.14068663  0.81460595     0.00300
C2641       C  0.71972803  0.13134459  0.78834028    -0.11400
C2642       C  0.73209217  0.15400029  0.76737087     0.02500
H2643       H  0.70169727  0.22040154  0.80170494     0.15500
H2644       H  0.72476315  0.10649412  0.78461912     0.15500
C2645       C  0.75043755  0.14358917  0.74038869     0.37100
C2646       C  0.67511169  0.18402984  0.84494889     0.37000
N2647       N  0.76495560  0.13521152  0.71864597    -0.43200
N2648       N  0.65972004  0.19278094  0.86590213    -0.43200
C2649       C  0.85748764  0.22798055  0.67929329     0.00400
C2650       C  0.84660127  0.25903024  0.68175996    -0.11500
C2651       C  0.82764150  0.26752093  0.70757079     0.02600
C2652       C  0.81693991  0.24354588  0.72857504     0.00300
C2653       C  0.83459500  0.21566867  0.73072254    -0.11400
C2654       C  0.85540222  0.20792070  0.70619980     0.02500
H2655       H  0.85037289  0.27561586  0.66243293     0.15500
H2656       H  0.82883115  0.19794344  0.74846165     0.15500
C2657       C  0.87143560  0.17784319  0.70727779     0.37100
C2658       C  0.81546536  0.29936570  0.70904235     0.37000
N2659       N  0.88436153  0.15379457  0.70817168    -0.43200
N2660       N  0.80548585  0.32478459  0.71014816    -0.43200
C2661       C  0.46030426  0.23777995  0.53701360     0.00400
C2662       C  0.46133318  0.20608406  0.54645937    -0.11500
C2663       C  0.44639798  0.19629489  0.57413346     0.02600
C2664       C  0.43028578  0.21863129  0.59300299     0.00300
C2665       C  0.43169898  0.25086034  0.58527062    -0.11400
C2666       C  0.44661264  0.26062366  0.55720264     0.02500
H2667       H  0.47277573  0.18864957  0.53143796     0.15500
H2668       H  0.41850982  0.26780150  0.59934150     0.15500
C2669       C  0.44490371  0.29350424  0.54816151     0.37100
C2670       C  0.44369115  0.16269265  0.57988514     0.37000
N2671       N  0.44325377  0.31984950  0.54090942    -0.43200
N2672       N  0.44091377  0.13577725  0.58391935    -0.43200
C2673       C  0.49025470  0.20446472  0.43080123     0.00400
C2674       C  0.48321641  0.17318129  0.43973214    -0.11500
C2675       C  0.49213019  0.14776637  0.42035664     0.02600
C2676       C  0.50811683  0.15369818  0.39151546     0.00300
C2677       C  0.51072994  0.18507786  0.38063186    -0.11400
C2678       C  0.50191012  0.21036844  0.39997949     0.02500
H2679       H  0.47368352  0.16831382  0.46319918     0.15500
H2680       H  0.52248782  0.19009549  0.35826254     0.15500
C2681       C  0.50713184  0.24214310  0.38860251     0.37100
C2682       C  0.48804798  0.11599656  0.43227447     0.37000
N2683       N  0.51137217  0.26768621  0.37974598    -0.43200
N2684       N  0.48511901  0.09062050  0.44215424    -0.43200
C2685       C  0.55100413  0.28221970  0.48961744     0.00400
C2686       C  0.56065705  0.30892851  0.47254322    -0.11500
C2687       C  0.58390786  0.32875030  0.48520132     0.02600
C2688       C  0.59642274  0.32230275  0.51575728     0.00300
C2689       C  0.58957769  0.29328007  0.53034449    -0.11400
C2690       C  0.56758766  0.27296077  0.51714976     0.02500
H2691       H  0.54859742  0.31548730  0.45076390     0.15500
H2692       H  0.59909463  0.28765590  0.55362105     0.15500
C2693       C  0.56039827  0.24394234  0.53388626     0.37100
C2694       C  0.59329510  0.35639357  0.46747658     0.37000
N2695       N  0.55453761  0.22073860  0.54724096    -0.43200
N2696       N  0.60114447  0.37824862  0.45293937    -0.43200
C2697       C  0.64043695  0.06248468  0.42757510     0.00400
C2698       C  0.67075764  0.07477808  0.43078364    -0.11500
C2699       C  0.68754031  0.07074602  0.45896552     0.02600
C2700       C  0.67362342  0.05405952  0.48464188     0.00300
C2701       C  0.64341853  0.04102050  0.48065662    -0.11400
C2702       C  0.62682008  0.04513232  0.45247121     0.02500
H2703       H  0.68098987  0.08828696  0.41138572     0.15500
H2704       H  0.63227658  0.02790338  0.49973026     0.15500
C2705       C  0.59562042  0.03197507  0.44979648     0.37100
C2706       C  0.71872041  0.08409431  0.46033638     0.37000
N2707       N  0.57055970  0.02164348  0.44761827    -0.43200
N2708       N  0.74366962  0.09490442  0.46110630    -0.43200
C2709       C  0.67603896  0.00139536  0.58752684     0.00400
C2710       C  0.69601895  0.98204219  0.60559315    -0.11500
C2711       C  0.68450143  0.95462820  0.62003282     0.02600
C2712       C  0.65284066  0.94617819  0.61575642     0.00300
C2713       C  0.63237195  0.96710940  0.60030104    -0.11400
C2714       C  0.64352545  0.99489639  0.58680792     0.02500
H2715       H  0.72087797  0.98738284  0.60708391     0.15500
H2716       H  0.60771224  0.96114885  0.59781568     0.15500
C2717       C  0.62110122  0.01598223  0.57204637     0.37100
C2718       C  0.70546379  0.93581344  0.63912791     0.37000
N2719       N  0.60305157  0.03285621  0.56038323    -0.43200
N2720       N  0.72259346  0.92158997  0.65496949    -0.43200
C2721       C  0.75902666  0.07698448  0.55957283     0.00400
C2722       C  0.78310346  0.05983699  0.57440839    -0.11500
C2723       C  0.81160757  0.07428544  0.58163352     0.02600
C2724       C  0.81598077  0.10645079  0.57422762     0.00300
C2725       C  0.79208634  0.12355337  0.55912171    -0.11400
C2726       C  0.76364410  0.10910179  0.55170778     0.02500
H2727       H  0.77969039  0.03507434  0.58019020     0.15500
H2728       H  0.79551854  0.14841261  0.55376843     0.15500
C2729       C  0.73918339  0.12813069  0.53749833     0.37100
C2730       C  0.83572405  0.05596513  0.59729733     0.37000
N2731       N  0.71957407  0.14334678  0.52611862    -0.43200
N2732       N  0.85523776  0.04140243  0.60966427    -0.43200
C2733       C  0.43594215  0.11981555  0.71601461     0.00400
C2734       C  0.43054416  0.11113569  0.74788343    -0.11500
C2735       C  0.44582247  0.08483772  0.76084222     0.02600
C2736       C  0.46720209  0.06790035  0.74179585     0.00300
C2737       C  0.47650419  0.08002514  0.71228374    -0.11400
C2738       C  0.46124160  0.10608931  0.69931855     0.02500
H2739       H  0.41131731  0.12195432  0.76088213     0.15500
H2740       H  0.49420466  0.06773279  0.69838855     0.15500
C2741       C  0.46992635  0.11598566  0.66763071     0.37100
C2742       C  0.43620412  0.07353383  0.79178937     0.37000
N2743       N  0.47769812  0.12382935  0.64242962    -0.43200
N2744       N  0.42807240  0.06472900  0.81656414    -0.43200
C2745       C  0.59319175  0.01544717  0.83608335     0.00400
C2746       C  0.56379457  0.02501895  0.84774182    -0.11500
C2747       C  0.53643860  0.01811141  0.83114946     0.02600
C2748       C  0.53828340  0.00186499  0.80196187     0.00300
C2749       C  0.56727564  0.98923170  0.79200639    -0.11400
C2750       C  0.59480353  0.99585843  0.80906686     0.02500
H2751       H  0.56234118  0.03939052  0.86910390     0.15500
H2752       H  0.56880895  0.97623104  0.76979023     0.15500
C2753       C  0.62445517  0.98341522  0.79809858     0.37100
C2754       C  0.50689018  0.02901724  0.84400368     0.37000
N2755       N  0.64831668  0.97336023  0.78962850    -0.43200
N2756       N  0.48332088  0.03769220  0.85457723    -0.43200
C2757       C  0.48261228  0.95784302  0.71082226     0.00400
C2758       C  0.48565289  0.92684791  0.72209018    -0.11500
C2759       C  0.49912677  0.90360716  0.70299284     0.02600
C2760       C  0.50860148  0.91120678  0.67170944     0.00300
C2761       C  0.49963358  0.94031281  0.65854615    -0.11400
C2762       C  0.48642624  0.96378433  0.67786870     0.02500
H2763       H  0.48163666  0.92190508  0.74714993     0.15500
H2764       H  0.50620164  0.94590229  0.63420504     0.15500
C2765       C  0.48065619  0.99448475  0.66399505     0.37100
C2766       C  0.50802460  0.87433985  0.71799991     0.37000
N2767       N  0.47586775  0.01892116  0.65256289    -0.43200
N2768       N  0.51558791  0.85119921  0.73045125    -0.43200
C2769       C  0.47328688  0.53985139  0.18562331     0.00400
C2770       C  0.45926315  0.51656416  0.16618981    -0.11500
C2771       C  0.43051005  0.52224584  0.15106840     0.02600
C2772       C  0.41647746  0.55214516  0.15391153     0.00300
C2773       C  0.42996243  0.57502180  0.17356285    -0.11400
C2774       C  0.45684142  0.56852750  0.19094847     0.02500
H2775       H  0.47065065  0.49390682  0.16270153     0.15500
H2776       H  0.41853028  0.59782295  0.17626889     0.15500
C2777       C  0.46486144  0.59098238  0.21551709     0.37100
C2778       C  0.41579488  0.49730268  0.13297082     0.37000
N2779       N  0.46984686  0.60900380  0.23562096    -0.43200
N2780       N  0.40382040  0.47720322  0.11876598    -0.43200
C2781       C  0.56714470  0.47276660  0.19828419     0.00400
C2782       C  0.56404431  0.45819956  0.16843967    -0.11500
C2783       C  0.58384031  0.43331533  0.15990685     0.02600
C2784       C  0.60741868  0.42338347  0.18125695     0.00300
C2785       C  0.60945579  0.43679281  0.21151787    -0.11400
C2786       C  0.58906205  0.46079414  0.22053291     0.02500
H2787       H  0.54694187  0.46690426  0.15141780     0.15500
H2788       H  0.62676892  0.42825336  0.22830266     0.15500
C2789       C  0.59041946  0.47151975  0.25317893     0.37100
C2790       C  0.57991114  0.41858381  0.12909816     0.37000
N2791       N  0.59164878  0.47928601  0.27958404    -0.43200
N2792       N  0.57678677  0.40670996  0.10446175    -0.43200
C2793       C  0.47538131  0.69871523  0.04981552     0.00400
C2794       C  0.46309476  0.68048283  0.02453238    -0.11500
C2795       C  0.43556913  0.66306586  0.02817855     0.02600
C2796       C  0.41997921  0.66355872  0.05757979     0.00300
C2797       C  0.43203861  0.68133905  0.08289907    -0.11400
C2798       C  0.45928799  0.69910403  0.07933106     0.02500
H2799       H  0.47507704  0.67942180  0.00176536     0.15500
H2800       H  0.41976426  0.68148474  0.10558584     0.15500
C2801       C  0.46944005  0.71752644  0.10639517     0.37100
C2802       C  0.42431086  0.64436496  0.00178569     0.37000
N2803       N  0.47724515  0.73213484  0.12831280    -0.43200
N2804       N  0.41585391  0.62903331  0.98064418    -0.43200
C2805       C  0.56629843  0.75978957  0.08846907     0.00400
C2806       C  0.54916168  0.77817868  0.11025323    -0.11500
C2807       C  0.56418694  0.80178178  0.12776248     0.02600
C2808       C  0.59642830  0.80703070  0.12299223     0.00300
C2809       C  0.61417903  0.78556118  0.10510021    -0.11400
C2810       C  0.59937340  0.76174395  0.08797828     0.02500
H2811       H  0.52380644  0.77631661  0.11130346     0.15500
H2812       H  0.63924649  0.78917634  0.10221117     0.15500
C2813       C  0.61849325  0.74089110  0.06877694     0.37100
C2814       C  0.54594039  0.82248088  0.14789551     0.37000
N2815       N  0.63397845  0.72420643  0.05357311    -0.43200
N2816       N  0.53174591  0.83932145  0.16416696    -0.43200
C2817       C  0.55944548  0.72768927  0.97703692     0.00400
C2818       C  0.59242765  0.72666277  0.97542851    -0.11500
C2819       C  0.60733384  0.71177776  0.94995271     0.02600
C2820       C  0.58900262  0.69811380  0.92585492     0.00300
C2821       C  0.55657752  0.70327223  0.92503939    -0.11400
C2822       C  0.54165187  0.71843067  0.95019313     0.02500
H2823       H  0.60653306  0.73498929  0.99516520     0.15500
H2824       H  0.54270862  0.69375822  0.90559220     0.15500
C2825       C  0.50803548  0.72270863  0.94833070     0.37100
C2826       C  0.64114435  0.70930062  0.94969710     0.37000
N2827       N  0.48111666  0.72604894  0.94661655    -0.43200
N2828       N  0.66824769  0.70740921  0.94931887    -0.43200
C2829       C  0.75455114  0.45125084  0.04874211     0.00400
C2830       C  0.77114910  0.44473516  0.07712124    -0.11500
C2831       C  0.76362838  0.41827136  0.09542201     0.02600
C2832       C  0.73988021  0.39797268  0.08483222     0.00300
C2833       C  0.72888850  0.40043620  0.05342816    -0.11400
C2834       C  0.73642938  0.42684625  0.03496804     0.02500
H2835       H  0.78731606  0.46197574  0.08691952     0.15500
H2836       H  0.71168727  0.38362800  0.04470640     0.15500
C2837       C  0.72313798  0.42925274  0.00341119     0.37100
C2838       C  0.77825745  0.41386818  0.12611733     0.37000
N2839       N  0.71266804  0.43104385  0.97802617    -0.43200
N2840       N  0.79015097  0.41009745  0.15061083    -0.43200
C2841       C  0.76519072  0.56145613  0.07825270     0.00400
C2842       C  0.78275278  0.58672705  0.06613799    -0.11500
C2843       C  0.80411005  0.60241938  0.08568240     0.02600
C2844       C  0.80709880  0.59322060  0.11781249     0.00300
C2845       C  0.78604949  0.57146543  0.13099234    -0.11400
C2846       C  0.76524546  0.55520216  0.11132023     0.02500
H2847       H  0.78252069  0.59174032  0.04078385     0.15500
H2848       H  0.78828435  0.56469206  0.15583078     0.15500
C2849       C  0.74618595  0.53042792  0.12507398     0.37100
C2850       C  0.82541347  0.62499736  0.07154938     0.37000
N2851       N  0.73104073  0.51046359  0.13601399    -0.43200
N2852       N  0.84277703  0.64283810  0.06029711    -0.43200
C2853       C  0.71031677  0.53497786  0.97968244     0.00400
C2854       C  0.68069232  0.52184398  0.97330045    -0.11500
C2855       C  0.66190320  0.53418966  0.94885433     0.02600
C2856       C  0.67287819  0.56006188  0.93089913     0.00300
C2857       C  0.70285675  0.57237328  0.93670148    -0.11400
C2858       C  0.72177104  0.55977405  0.96054294     0.02500
H2859       H  0.67190085  0.50269013  0.98799622     0.15500
H2860       H  0.71153621  0.59180032  0.92227876     0.15500
C2861       C  0.75321398  0.57202866  0.96431888     0.37100
C2862       C  0.63140678  0.52055201  0.94293719     0.37000
N2863       N  0.77851033  0.58158357  0.96718143    -0.43200
N2864       N  0.60691039  0.50972044  0.93818336    -0.43200
C2865       C  0.57652292  0.61198937  0.30319285     0.00400
C2866       C  0.55907214  0.62514831  0.27822399    -0.11500
C2867       C  0.55306923  0.60746048  0.25082370     0.02600
C2868       C  0.56287399  0.57562022  0.24949939     0.00300
C2869       C  0.58337807  0.56406391  0.27296514    -0.11400
C2870       C  0.59072635  0.58228819  0.29944352     0.02500
H2871       H  0.55060090  0.64926619  0.28003562     0.15500
H2872       H  0.59305312  0.54050471  0.27122340     0.15500
C2873       C  0.61379957  0.57078579  0.32182282     0.37100
C2874       C  0.53906220  0.62300404  0.22369845     0.37000
N2875       N  0.63277553  0.56209522  0.33948923    -0.43200
N2876       N  0.52843000  0.63565958  0.20174837    -0.43200
C2877       C  0.72686796  0.76424938  0.32486775     0.00400
C2878       C  0.72764116  0.74091601  0.34870021    -0.11500
C2879       C  0.69999890  0.72771954  0.36047389     0.02600
C2880       C  0.67073896  0.73908573  0.34961548     0.00300
C2881       C  0.66963201  0.76476403  0.32883868    -0.11400
C2882       C  0.69730420  0.77748562  0.31629783     0.02500
H2883       H  0.74989426  0.73128844  0.35661242     0.15500
H2884       H  0.64702296  0.77382337  0.32118120     0.15500
C2885       C  0.69391700  0.80240994  0.29309111     0.37100
C2886       C  0.70236917  0.70088485  0.38171316     0.37000
N2887       N  0.69091252  0.82210171  0.27420646    -0.43200
N2888       N  0.70438094  0.67924490  0.39848486    -0.43200
C2889       C  0.82594836  0.72141173  0.28357870     0.00400
C2890       C  0.85195587  0.72611150  0.26366553    -0.11500
C2891       C  0.86673448  0.70067561  0.24904350     0.02600
C2892       C  0.85768082  0.66950978  0.25677330     0.00300
C2893       C  0.83530432  0.66453534  0.28067037    -0.11400
C2894       C  0.81912660  0.69020435  0.29409631     0.02500
H2895       H  0.85816530  0.74984464  0.25611377     0.15500
H2896       H  0.82860119  0.64055597  0.28679767     0.15500
C2897       C  0.79411287  0.68312449  0.31618022     0.37100
C2898       C  0.88663731  0.70758122  0.22207983     0.37000
N2899       N  0.77423558  0.67664362  0.33382601    -0.43200
N2900       N  0.90134077  0.71377373  0.19975082    -0.43200
C2901       C  0.77441345  0.81018949  0.23086643     0.00400
C2902       C  0.77176098  0.84302800  0.23353633    -0.11500
C2903       C  0.75683844  0.86071508  0.20972782     0.02600
C2904       C  0.74174401  0.84491312  0.18412509     0.00300
C2905       C  0.74813883  0.81265242  0.17953107    -0.11400
C2906       C  0.76499885  0.79537665  0.20232082     0.02500
H2907       H  0.77991287  0.85465840  0.25503540     0.15500
H2908       H  0.73819998  0.80052988  0.15913008     0.15500
C2909       C  0.77030232  0.76207470  0.19697240     0.37100
C2910       C  0.75580388  0.89458798  0.21364642     0.37000
N2911       N  0.77501845  0.73550141  0.19246801    -0.43200
N2912       N  0.75492050  0.92166878  0.21749845    -0.43200
C2913       C  0.28450822  0.54748682  0.01151493     0.00400
C2914       C  0.27005239  0.57419610  0.99814081    -0.11500
C2915       C  0.28814022  0.59754646  0.98364796     0.02600
C2916       C  0.32105518  0.59433110  0.98314228     0.00300
C2917       C  0.33551401  0.57157944  0.00226506    -0.11400
C2918       C  0.31736872  0.54849520  0.01739083     0.02500
H2919       H  0.24475036  0.57484349  0.99525973     0.15500
H2920       H  0.36094186  0.57036174  0.00326213     0.15500
C2921       C  0.33356953  0.52509617  0.03634187     0.37100
C2922       C  0.27241603  0.62199441  0.96567225     0.37000
N2923       N  0.34681199  0.50660807  0.05161877    -0.43200
N2924       N  0.25986386  0.64150131  0.95113048    -0.43200
C2925       C  0.16419570  0.47622491  0.90451141     0.00400
C2926       C  0.18113615  0.44989945  0.91487094    -0.11500
C2927       C  0.20285027  0.45221103  0.93928097     0.02600
C2928       C  0.20861262  0.48197736  0.95385868     0.00300
C2929       C  0.19260764  0.50885045  0.94221389    -0.11400
C2930       C  0.17023472  0.50608717  0.91783921     0.02500
H2931       H  0.17596194  0.42678760  0.90489452     0.15500
H2932       H  0.19683336  0.53186873  0.95271074     0.15500
C2933       C  0.15267426  0.53357370  0.90791510     0.37100
C2934       C  0.21783140  0.42299844  0.94877050     0.37000
N2935       N  0.13843118  0.55550956  0.89996957    -0.43200
N2936       N  0.22950970  0.39943837  0.95630267    -0.43200
C2937       C  0.28688385  0.43354508  0.02170362     0.00400
C2938       C  0.27262364  0.40882912  0.03852838    -0.11500
C2939       C  0.29138009  0.38678285  0.05446448     0.02600
C2940       C  0.32428377  0.39081559  0.05426352     0.00300
C2941       C  0.33799516  0.41118608  0.03190945    -0.11400
C2942       C  0.31932740  0.43255481  0.01536988     0.02500
H2943       H  0.24736179  0.40856881  0.04178303     0.15500
H2944       H  0.36333398  0.41340968  0.03054794     0.15500
C2945       C  0.33401688  0.45458555  0.99364965     0.37100
C2946       C  0.27673668  0.36348541  0.07475523     0.37000
N2947       N  0.34548610  0.47225153  0.97608651    -0.43200
N2948       N  0.26511890  0.34472945  0.09101599    -0.43200
C2949       C  0.52477992  0.48732519  0.80249888     0.00400
C2950       C  0.52377065  0.48638826  0.83602021    -0.11500
C2951       C  0.54855214  0.47320358  0.85316319     0.02600
C2952       C  0.57461565  0.46133779  0.83661953     0.00300
C2953       C  0.57790458  0.46704774  0.80391798    -0.11400
C2954       C  0.55321758  0.48021222  0.78668808     0.02500
H2955       H  0.50255077  0.49289843  0.84868361     0.15500
H2956       H  0.59860894  0.45863212  0.79143902     0.15500
C2957       C  0.55696865  0.48410933  0.75268149     0.37100
C2958       C  0.54588008  0.46964803  0.88727647     0.37000
N2959       N  0.55997366  0.48717295  0.72543925    -0.43200
N2960       N  0.54402952  0.46679290  0.91463966    -0.43200
C2961       C  0.41330020  0.51125953  0.80221080     0.00400
C2962       C  0.39330195  0.53126561  0.78496178    -0.11500
C2963       C  0.37605079  0.55456233  0.80090019     0.02600
C2964       C  0.37995618  0.55832047  0.83405752     0.00300
C2965       C  0.39589691  0.53501619  0.85144620    -0.11400
C2966       C  0.41190192  0.51102276  0.83575887     0.02500
H2967       H  0.39337713  0.53068943  0.75912227     0.15500
H2968       H  0.39796971  0.53695720  0.87713632     0.15500
C2969       C  0.42848907  0.48772774  0.85452435     0.37100
C2970       C  0.35617899  0.57556921  0.78284232     0.37000
N2971       N  0.44154452  0.46896445  0.86960903    -0.43200
N2972       N  0.33980995  0.59214920  0.76854025    -0.43200
C2973       C  0.46037719  0.44738711  0.71577056     0.00400
C2974       C  0.48766745  0.43146740  0.70511420    -0.11500
C2975       C  0.48636199  0.40926621  0.68054105     0.02600
C2976       C  0.45740619  0.40246664  0.66639793     0.00300
C2977       C  0.43032993  0.41865471  0.67620923    -0.11400
C2978       C  0.43148955  0.44118470  0.70034264     0.02500
H2979       H  0.51023617  0.43600430  0.71609241     0.15500
H2980       H  0.40816916  0.41399493  0.66432687     0.15500
C2981       C  0.40267150  0.45757774  0.70795499     0.37100
C2982       C  0.51489028  0.39415039  0.66990456     0.37000
N2983       N  0.37947020  0.47061882  0.71378999    -0.43200
N2984       N  0.53781830  0.38217706  0.66131777    -0.43200
C2985       C  0.52607607  0.27542274  0.93928335     0.00400
C2986       C  0.54585320  0.25905096  0.91833741    -0.11500
C2987       C  0.56247907  0.27579352  0.89498471     0.02600
C2988       C  0.56027194  0.30913117  0.89421223     0.00300
C2989       C  0.53591638  0.32405826  0.91089077    -0.11400
C2990       C  0.51821831  0.30716917  0.93284922     0.02500
H2991       H  0.55073685  0.23418618  0.92223469     0.15500
H2992       H  0.53296131  0.34948816  0.90954986     0.15500
C2993       C  0.49389942  0.32354797  0.95034702     0.37100
C2994       C  0.58462038  0.25920114  0.87500538     0.37000
N2995       N  0.47427685  0.33665184  0.96413273    -0.43200
N2996       N  0.60238759  0.24610269  0.85884186    -0.43200
C2997       C  0.50964044  0.29709575  0.05026404     0.00400
C2998       C  0.50730049  0.32873539  0.03990559    -0.11500
C2999       C  0.49047023  0.35085711  0.05765352     0.02600
C3000       C  0.47711627  0.34169175  0.08675207     0.00300
C3001       C  0.48441015  0.31196765  0.09975598    -0.11400
C3002       C  0.50074241  0.28959673  0.08176269     0.02500
H3003       H  0.51543801  0.33550787  0.01641933     0.15500
H3004       H  0.47501789  0.30530779  0.12284441     0.15500
C3005       C  0.50625047  0.25869953  0.09536209     0.37100
C3006       C  0.48465150  0.38179859  0.04437474     0.37000
N3007       N  0.51068761  0.23398987  0.10633462    -0.43200
N3008       N  0.47975522  0.40658459  0.03380731    -0.43200
C3009       C  0.47076570  0.19944673  0.00492354     0.00400
C3010       C  0.44096307  0.20622901  0.01756709    -0.11500
C3011       C  0.41521049  0.18717856  0.01017744     0.02600
C3012       C  0.41960688  0.16031726  0.99088826     0.00300
C3013       C  0.45009526  0.15173309  0.98136022    -0.11400
C3014       C  0.47558666  0.17124047  0.98791083     0.02500
H3015       H  0.43712424  0.22813621  0.03043473     0.15500
H3016       H  0.45364199  0.13095783  0.96663160     0.15500
C3017       C  0.50599283  0.16296751  0.97509080     0.37100
C3018       C  0.38433812  0.19751329  0.01979634     0.37000
N3019       N  0.53029910  0.15641317  0.96465849    -0.43200
N3020       N  0.35972571  0.20660291  0.02703787    -0.43200
C3021       C  0.30161575  0.18209418  0.87485483     0.00400
C3022       C  0.30774170  0.17790284  0.84226395    -0.11500
C3023       C  0.29976730  0.20113497  0.82014628     0.02600
C3024       C  0.28608362  0.22970762  0.83072663     0.00300
C3025       C  0.27818566  0.23303665  0.86313436    -0.11400
C3026       C  0.28577803  0.20939638  0.88518817     0.02500
H3027       H  0.31930866  0.15650705  0.83413728     0.15500
H3028       H  0.26710667  0.25458063  0.87148967     0.15500
C3029       C  0.27732726  0.21355511  0.91822767     0.37100
C3030       C  0.30542710  0.19465728  0.78680076     0.37000
N3031       N  0.27053731  0.21667144  0.94474546    -0.43200
N3032       N  0.30984206  0.18932472  0.76011557    -0.43200
C3033       C  0.32111733  0.29232750  0.73910636     0.00400
C3034       C  0.31902635  0.27092129  0.71379627    -0.11500
C3035       C  0.33374181  0.27740255  0.68477083     0.02600
C3036       C  0.35160299  0.30523440  0.68125519     0.00300
C3037       C  0.35450498  0.32606331  0.70718142    -0.11400
C3038       C  0.33934216  0.31986008  0.73596320     0.02500
H3039       H  0.30434101  0.25008786  0.71610554     0.15500
H3040       H  0.36796716  0.34768366  0.70459542     0.15500
C3041       C  0.34262292  0.34207578  0.76188632     0.37100
C3042       C  0.32821521  0.25640457  0.65841482     0.37000
N3043       N  0.34532731  0.35977644  0.78272358    -0.43200
N3044       N  0.32270702  0.24002203  0.63713276    -0.43200
C3045       C  0.17796723  0.36594432  0.81027991     0.00400
C3046       C  0.19017299  0.36272015  0.77958239    -0.11500
C3047       C  0.21623128  0.34338799  0.77414189     0.02600
C3048       C  0.23018073  0.32685585  0.79995437     0.00300
C3049       C  0.21820650  0.33096597  0.83080554    -0.11400
C3050       C  0.19235798  0.35040391  0.83614585     0.02500
H3051       H  0.17863599  0.37443159  0.75978417     0.15500
H3052       H  0.22878341  0.31863006  0.85076762     0.15500
C3053       C  0.17991543  0.35292773  0.86811379     0.37100
C3054       C  0.22675295  0.33962616  0.74162631     0.37000
N3055       N  0.16966361  0.35493540  0.89358083    -0.43200
N3056       N  0.23517678  0.33665608  0.71556785    -0.43200
C3057       C  0.43030718  0.82354051  0.51115050     0.00400
C3058       C  0.44851078  0.84661823  0.52683823    -0.11500
C3059       C  0.44025772  0.85763946  0.55676955     0.02600
C3060       C  0.41303967  0.84600025  0.57141070     0.00300
C3061       C  0.39596243  0.82148748  0.55738714    -0.11400
C3062       C  0.40471112  0.80966506  0.52757208     0.02500
H3063       H  0.46925818  0.85654338  0.51570413     0.15500
H3064       H  0.37558578  0.81197671  0.56959274     0.15500
C3065       C  0.38714621  0.78330739  0.51514587     0.37100
C3066       C  0.45983991  0.88113258  0.57201481     0.37000
N3067       N  0.37307613  0.76169929  0.50615239    -0.43200
N3068       N  0.47548452  0.89979063  0.58442604    -0.43200
C3069       C  0.30083019  0.00943180  0.56612901     0.00400
C3070       C  0.33245568  0.01730365  0.56019704    -0.11500
C3071       C  0.35598616  0.00783610  0.58126315     0.02600
C3072       C  0.34772733  0.99055084  0.60851433     0.00300
C3073       C  0.31595244  0.98774173  0.61716307    -0.11400
C3074       C  0.29238180  0.99711086  0.59611362     0.02500
H3075       H  0.33925626  0.02791218  0.53770134     0.15500
H3076       H  0.30958042  0.97519148  0.63878079     0.15500
C3077       C  0.25995532  0.99233913  0.60501488     0.37100
C3078       C  0.38848029  0.01272207  0.57284513     0.37000
N3079       N  0.23390161  0.98874944  0.61196586    -0.43200
N3080       N  0.41458453  0.01657332  0.56625390    -0.43200
C3081       C  0.30236536  0.08124288  0.40808452     0.00400
C3082       C  0.27875143  0.05908725  0.40244827    -0.11500
C3083       C  0.26589071  0.04181871  0.42771895     0.02600
C3084       C  0.27719309  0.04678877  0.45922408     0.00300
C3085       C  0.30009312  0.07009324  0.46445312    -0.11400
C3086       C  0.31280928  0.08705771  0.43934575     0.02500
H3087       H  0.27052912  0.05524519  0.37829615     0.15500
H3088       H  0.30882051  0.07481961  0.48824609     0.15500
C3089       C  0.33701925  0.11001900  0.44628251     0.37100
C3090       C  0.24161169  0.01922350  0.42011905     0.37000
N3091       N  0.35631835  0.12843122  0.45192654    -0.43200
N3092       N  0.22212357  0.00125094  0.41372661    -0.43200
C3093       C  0.17773397  0.91200291  0.47891613     0.00400
C3094       C  0.16909552  0.94388345  0.47576531    -0.11500
C3095       C  0.18773464  0.96768694  0.48848833     0.02600
C3096       C  0.21609633  0.95988360  0.50374586     0.00300
C3097       C  0.22386129  0.92802828  0.50886590    -0.11400
C3098       C  0.20470500  0.90396844  0.49663062     0.02500
H3099       H  0.14801008  0.95017319  0.46272300     0.15500
H3100       H  0.24567901  0.92199749  0.52071042     0.15500
C3101       C  0.21366957  0.87140647  0.50130815     0.37100
C3102       C  0.17789078  0.00022606  0.48533943     0.37000
N3103       N  0.22084145  0.84524408  0.50477691    -0.43200
N3104       N  0.17112180  0.02664644  0.48349557    -0.43200
C3105       C  0.55381862  0.87498401  0.40172284     0.00400
C3106       C  0.53442041  0.85987548  0.37935591    -0.11500
C3107       C  0.50590433  0.84650528  0.38851972     0.02600
C3108       C  0.49676386  0.84767735  0.42082286     0.00300
C3109       C  0.51508107  0.86521267  0.44253702    -0.11400
C3110       C  0.54341195  0.87884878  0.43320655     0.02500
H3111       H  0.54221973  0.85745095  0.35485410     0.15500
H3112       H  0.50826282  0.86695722  0.46736402     0.15500
C3113       C  0.56217791  0.89523918  0.45660578     0.37100
C3114       C  0.48686407  0.83157864  0.36435360     0.37000
N3115       N  0.57730212  0.90822778  0.47538227    -0.43200
N3116       N  0.47158437  0.81969480  0.34496533    -0.43200
C3117       C  0.54910101  0.95784256  0.22954347     0.00400
C3118       C  0.55754447  0.92633006  0.22269530    -0.11500
C3119       C  0.58239784  0.91252451  0.23907994     0.02600
C3120       C  0.60038251  0.93151087  0.25947950     0.00300
C3121       C  0.59789263  0.96452047  0.25775637    -0.11400
C3122       C  0.57221035  0.97805147  0.24223658     0.02500
H3123       H  0.54148134  0.91100622  0.20991375     0.15500
H3124       H  0.61343632  0.97926779  0.27181402     0.15500
C3125       C  0.56842843  0.01194314  0.24276438     0.37100
C3126       C  0.58590262  0.87854014  0.23853959     0.37000
N3127       N  0.56557333  0.03915177  0.24292973    -0.43200
N3128       N  0.58870132  0.85132548  0.23827529    -0.43200
C3129       C  0.44373758  0.91471628  0.23705707     0.00400
C3130       C  0.45489101  0.89077422  0.21673241    -0.11500
C3131       C  0.43519445  0.87812606  0.19367628     0.02600
C3132       C  0.40365689  0.88773716  0.19285406     0.00300
C3133       C  0.39103534  0.90532567  0.21802662    -0.11400
C3134       C  0.41092486  0.91878557  0.24056012     0.02500
H3135       H  0.47979025  0.88556942  0.21530555     0.15500
H3136       H  0.36628293  0.91141014  0.21801547     0.15500
C3137       C  0.39724613  0.93913532  0.26450182     0.37100
C3138       C  0.44862681  0.85902660  0.16860862     0.37000
N3139       N  0.38614397  0.95548172  0.28354505    -0.43200
N3140       N  0.45939346  0.84410407  0.14824354    -0.43200
C3141       C  0.46073557  0.02309009  0.26984403     0.00400
C3142       C  0.43003936  0.03002999  0.25985907    -0.11500
C3143       C  0.41270840  0.05368737  0.27457763     0.02600
C3144       C  0.42621852  0.07091417  0.29964373     0.00300
C3145       C  0.45745508  0.06535300  0.30860741    -0.11400
C3146       C  0.47494526  0.04153240  0.29379248     0.02500
H3147       H  0.41914160  0.01609701  0.24118198     0.15500
H3148       H  0.46775645  0.07900198  0.32778514     0.15500
C3149       C  0.50638568  0.03526051  0.30498294     0.37100
C3150       C  0.38098192  0.05957696  0.26394121     0.37000
N3151       N  0.53156853  0.03039190  0.31410229    -0.43200
N3152       N  0.35557007  0.06426149  0.25540931    -0.43200
C3153       C  0.41843226  0.69398682  0.38907718     0.00400
C3154       C  0.39423041  0.71151665  0.40325483    -0.11500
C3155       C  0.40038778  0.74078412  0.41730439     0.02600
C3156       C  0.43138802  0.75247363  0.41773556     0.00300
C3157       C  0.45552904  0.73490606  0.40334430    -0.11400
C3158       C  0.44927651  0.70582874  0.38900781     0.02500
H3159       H  0.37037450  0.70254972  0.40263940     0.15500
H3160       H  0.47942592  0.74377131  0.40359198     0.15500
C3161       C  0.47478720  0.68854404  0.37452913     0.37100
C3162       C  0.37425709  0.75913693  0.42906445     0.37000
N3163       N  0.49538670  0.67482709  0.36302710    -0.43200
N3164       N  0.35307695  0.77380975  0.43801919    -0.43200
C3165       C  0.21860215  0.77665067  0.29876943     0.00400
C3166       C  0.21276521  0.75928433  0.32676743    -0.11500
C3167       C  0.19871118  0.77363516  0.35311319     0.02600
C3168       C  0.18972870  0.80559281  0.35119195     0.00300
C3169       C  0.19895546  0.82380111  0.32497537    -0.11400
C3170       C  0.21400891  0.80979644  0.29907769     0.02500
H3171       H  0.21732290  0.73406988  0.32749038     0.15500
H3172       H  0.19273582  0.84866204  0.32400675     0.15500
C3173       C  0.22448336  0.83014001  0.27353846     0.37100
C3174       C  0.19069548  0.75449214  0.38044311     0.37000
N3175       N  0.23315553  0.84673866  0.25344206    -0.43200
N3176       N  0.18430288  0.73909284  0.40230497    -0.43200
C3177       C  0.27238266  0.68688053  0.25095873     0.00400
C3178       C  0.27654508  0.67682312  0.28268750    -0.11500
C3179       C  0.30267981  0.65926421  0.29163023     0.02600
C3180       C  0.32440007  0.64946336  0.26826115     0.00300
C3181       C  0.31789023  0.65509130  0.23604673    -0.11400
C3182       C  0.29209444  0.67376750  0.22712305     0.02500
H3183       H  0.26088577  0.68498723  0.30134438     0.15500
H3184       H  0.33404256  0.64653238  0.21800908     0.15500
C3185       C  0.28752083  0.67982734  0.19364302     0.37100
C3186       C  0.30796943  0.65406054  0.32528337     0.37000
N3187       N  0.28411782  0.68430348  0.16667145    -0.43200
N3188       N  0.31223565  0.65034271  0.35226650    -0.43200
C3189       C  0.23462389  0.77527336  0.18364931     0.00400
C3190       C  0.25830944  0.76746134  0.16177436    -0.11500
C3191       C  0.27167260  0.79078117  0.14260413     0.02600
C3192       C  0.26127883  0.82234843  0.14557733     0.00300
C3193       C  0.23376238  0.82882877  0.16242199    -0.11400
C3194       C  0.21967285  0.80512909  0.18074446     0.02500
H3195       H  0.26913882  0.74435273  0.16234236     0.15500
H3196       H  0.22471991  0.85277798  0.16318829     0.15500
C3197       C  0.19130555  0.81279296  0.19795156     0.37100
C3198       C  0.29890766  0.78275910  0.12366646     0.37000
N3199       N  0.16854450  0.81909786  0.21162751    -0.43200
N3200       N  0.32094849  0.77649659  0.10881150    -0.43200
C3201       C  0.94728183  0.93962982  0.73030137     0.00400
C3202       C  0.91812153  0.95496000  0.73396845    -0.11500
C3203       C  0.89159500  0.94354910  0.71842107     0.02600
C3204       C  0.89443647  0.91660293  0.69917754     0.00300
C3205       C  0.92147836  0.89786173  0.70098815    -0.11400
C3206       C  0.94795806  0.90898813  0.71695555     0.02500
H3207       H  0.91656843  0.97764212  0.74588635     0.15500
H3208       H  0.92295157  0.87623993  0.68717278     0.15500
C3209       C  0.97554614  0.88916647  0.71799144     0.37100
C3210       C  0.86321495  0.96224076  0.71860811     0.37000
N3211       N  0.99738728  0.87292083  0.71911302    -0.43200
N3212       N  0.84048573  0.97723726  0.71874182    -0.43200
C3213       C  0.06089707  0.95431944  0.71799621     0.00400
C3214       C  0.06113922  0.92309206  0.70635191    -0.11500
C3215       C  0.08339011  0.90148738  0.71742359     0.02600
C3216       C  0.10693887  0.91194367  0.73841282     0.00300
C3217       C  0.11139204  0.94463691  0.74253243    -0.11400
C3218       C  0.08862199  0.96607511  0.73215672     0.02500
H3219       H  0.04124402  0.91420822  0.69301902     0.15500
H3220       H  0.13040477  0.95314756  0.75741570     0.15500
C3221       C  0.09276746  0.99908658  0.73986400     0.37100
C3222       C  0.07870469  0.86830885  0.71100227     0.37000
N3223       N  0.09620477  0.02549888  0.74615288    -0.43200
N3224       N  0.07478277  0.84174770  0.70575997    -0.43200
C3225       C  0.99468457  0.03465164  0.77100503     0.00400
C3226       C  0.98707924  0.06204067  0.75392277    -0.11500
C3227       C  0.96838552  0.08544272  0.76789047     0.02600
C3228       C  0.95691210  0.08096313  0.79916569     0.00300
C3229       C  0.96738565  0.05523073  0.81720615    -0.11400
C3230       C  0.98639331  0.03219632  0.80340853     0.02500
H3231       H  0.99316381  0.06373994  0.72886695     0.15500
H3232       H  0.95944417  0.05242117  0.84161411     0.15500
C3233       C  0.99466719  0.00464192  0.82194801     0.37100
C3234       C  0.95973381  0.11269308  0.74908263     0.37000
N3235       N  0.00133563  0.98252381  0.83670610    -0.43200
N3236       N  0.95320682  0.13462549  0.73397216    -0.43200
C3237       C  0.90426808  0.75890405  0.91410797     0.00400
C3238       C  0.88795392  0.73839421  0.93474504    -0.11500
C3239       C  0.87671986  0.70937842  0.92384304     0.02600
C3240       C  0.88245447  0.70046458  0.89209307     0.00300
C3241       C  0.89579813  0.72222016  0.87084650    -0.11400
C3242       C  0.90563726  0.75169719  0.88124385     0.02500
H3243       H  0.88556871  0.74399780  0.95983452     0.15500
H3244       H  0.89908474  0.71585602  0.84600998     0.15500
C3245       C  0.91744624  0.77352927  0.85758096     0.37100
C3246       C  0.86040716  0.68881240  0.94576926     0.37000
N3247       N  0.92669585  0.79087777  0.83841544    -0.43200
N3248       N  0.84735988  0.67236568  0.96339627    -0.43200
C3249       C  0.94438021  0.81348283  0.00852920     0.00400
C3250       C  0.97271464  0.82052607  0.02418886    -0.11500
C3251       C  0.97288876  0.83001313  0.05598984     0.02600
C3252       C  0.94437289  0.83239403  0.07258458     0.00300
C3253       C  0.91639334  0.82282177  0.05796086    -0.11400
C3254       C  0.91603584  0.81346163  0.02613902     0.02500
H3255       H  0.99477967  0.81970696  0.01129510     0.15500
H3256       H  0.89439432  0.82490402  0.07087621     0.15500
C3257       C  0.88593523  0.80637242  0.01197145     0.37100
C3258       C  0.00229940  0.83908686  0.07020999     0.37000
N3259       N  0.86177557  0.80068156  0.00074109    -0.43200
N3260       N  0.02631763  0.84627516  0.08076274    -0.43200
C3261       C  0.00014656  0.82034651  0.90635459     0.00400
C3262       C  0.00623968  0.80329830  0.87813025    -0.11500
C3263       C  0.03412396  0.80755295  0.86132344     0.02600
C3264       C  0.05657123  0.82884318  0.87295461     0.00300
C3265       C  0.05040709  0.84664071  0.90034242    -0.11400
C3266       C  0.02230920  0.84291473  0.91694594     0.02500
H3267       H  0.98960994  0.78596256  0.86941346     0.15500
H3268       H  0.06759929  0.86372038  0.90854884     0.15500
C3269       C  0.01683198  0.86311758  0.94413046     0.37100
C3270       C  0.03944373  0.78966144  0.83250024     0.37000
N3271       N  0.01252174  0.87944465  0.96582341    -0.43200
N3272       N  0.04367593  0.77548096  0.80931202    -0.43200
C3273       C  0.79819146  0.01249709  0.92224118     0.00400
C3274       C  0.77780665  0.02907403  0.90188908    -0.11500
C3275       C  0.78976301  0.05171854  0.88068322     0.02600
C3276       C  0.82199503  0.05896680  0.88115083     0.00300
C3277       C  0.84252433  0.03979047  0.89850876    -0.11400
C3278       C  0.83101830  0.01598640  0.91814078     0.02500
H3279       H  0.75269390  0.02525950  0.90330766     0.15500
H3280       H  0.86759491  0.04429323  0.89767550     0.15500
C3281       C  0.85352308  0.99563018  0.93379046     0.37100
C3282       C  0.76923181  0.06638002  0.85783570     0.37000
N3283       N  0.87149998  0.97916734  0.94614403    -0.43200
N3284       N  0.75329388  0.07722323  0.83841022    -0.43200
C3285       C  0.71946625  0.94036198  0.96998114     0.00400
C3286       C  0.71784328  0.91204361  0.98774829    -0.11500
C3287       C  0.69411933  0.88985889  0.98208459     0.02600
C3288       C  0.67151330  0.89608238  0.95860851     0.00300
C3289       C  0.67125502  0.92543175  0.94309856    -0.11400
C3290       C  0.69490787  0.94757113  0.94852922     0.02500
H3291       H  0.73603845  0.90631809  0.00486132     0.15500
H3292       H  0.65341688  0.93028225  0.92528880     0.15500
C3293       C  0.69358012  0.97704513  0.93120413     0.37100
C3294       C  0.69401602  0.86046752  0.99957828     0.37000
N3295       N  0.69252537  0.00062249  0.91724678    -0.43200
N3296       N  0.69375246  0.83698037  0.01373235    -0.43200
C3297       C  0.81662128  0.96656072  0.02549366     0.00400
C3298       C  0.82579571  0.99014595  0.04699210    -0.11500
C3299       C  0.84790390  0.98347466  0.07071156     0.02600
C3300       C  0.86115208  0.95294642  0.07250470     0.00300
C3301       C  0.85325920  0.93015156  0.04962146    -0.11400
C3302       C  0.83129366  0.93677998  0.02610463     0.02500
H3303       H  0.81519887  0.01342980  0.04565267     0.15500
H3304       H  0.86315319  0.90654921  0.05110236     0.15500
C3305       C  0.82450229  0.91278856  0.00259695     0.37100
C3306       C  0.85586985  0.00774470  0.09351146     0.37000
N3307       N  0.81926959  0.89364998  0.98363932    -0.43200
N3308       N  0.86220988  0.02729120  0.11169387    -0.43200
C3309       C  0.77015860  0.68808370  0.72151130     0.00400
C3310       C  0.76149018  0.66235776  0.74059894    -0.11500
C3311       C  0.78416900  0.64420477  0.75594421     0.02600
C3312       C  0.81626134  0.65130985  0.75154545     0.00300
C3313       C  0.82509161  0.67421253  0.72920561    -0.11400
C3314       C  0.80223795  0.69264772  0.71395281     0.02500
H3315       H  0.73691220  0.65864758  0.74634661     0.15500
H3316       H  0.84978574  0.67946674  0.72575725     0.15500
C3317       C  0.81270153  0.71810343  0.69365782     0.37100
C3318       C  0.77377799  0.62172413  0.77964321     0.37000
N3319       N  0.82161940  0.73830646  0.67740568    -0.43200
N3320       N  0.76517282  0.60425895  0.79899321    -0.43200
C3321       C  0.67593010  0.79375219  0.82847365     0.00400
C3322       C  0.68186854  0.76111715  0.82917525    -0.11500
C3323       C  0.69462134  0.74577816  0.80257558     0.02600
C3324       C  0.70191939  0.76351577  0.77498437     0.00300
C3325       C  0.69842489  0.79661820  0.77572915    -0.11400
C3326       C  0.68546799  0.81174392  0.80203148     0.02500
H3327       H  0.67391025  0.74728763  0.84940757     0.15500
H3328       H  0.70499265  0.81087757  0.75529868     0.15500
C3329       C  0.68008607  0.84544712  0.80043162     0.37100
C3330       C  0.69754922  0.71178703  0.80353497     0.37000
N3331       N  0.67592729  0.87245478  0.79912243    -0.43200
N3332       N  0.69980189  0.68453499  0.80448690    -0.43200
C3333       C  0.73059906  0.78252822  0.66658950     0.00400
C3334       C  0.75839345  0.78164883  0.64872520    -0.11500
C3335       C  0.77287950  0.80965215  0.63931695     0.02600
C3336       C  0.75891673  0.83899190  0.64703807     0.00300
C3337       C  0.72846586  0.83957626  0.65936447    -0.11400
C3338       C  0.71379701  0.81147377  0.66845881     0.02500
H3339       H  0.77059316  0.75947516  0.64502041     0.15500
H3340       H  0.71654562  0.86186890  0.66289214     0.15500
C3341       C  0.68239449  0.81338404  0.68139413     0.37100
C3342       C  0.80298451  0.80772715  0.62351576     0.37000
N3343       N  0.65726385  0.81513094  0.69175979    -0.43200
N3344       N  0.82706938  0.80618932  0.61082351    -0.43200
loop_ 
_geom_bond_atom_site_label_1 
_geom_bond_atom_site_label_2 
_geom_bond_distance 
_geom_bond_site_symmetry_2 
_ccdc_geom_bond_type 
O1           C17   1.281       .  A
O1           Zn7   2.063       .  S
C2           O18   1.282       .  A
C2           O15   1.288       .  A
C2          C511   1.527       .  S
O3           C16   1.283       .  A
O3          Cd10   2.163       .  S
O4           C22   1.303       .  A
O4          Cd13   2.199       .  S
O5           C19   1.282       .  A
O5           Cd9   2.126       .  S
O6           C17   1.278       .  A
O6           Cd9   2.160       .  S
Zn7          O18   2.078       .  S
Zn7          O20   2.139       .  S
Zn7          O12   1.948       .  S
O8           C19   1.289       .  A
O8          Cd13   2.180       .  S
Cd9          O11   2.142       .  S
Cd9          O12   2.050       .  S
Cd10         O14   2.165       .  S
Cd10         O23   2.123       .  S
Cd10         O12   2.143       .  S
O11          C21   1.294       .  A
O12         Cd13   2.054       .  S
Cd13         O15   2.184       .  S
O14          C21   1.282       .  A
C16          O20   1.294       .  A
C16        C1013   1.553       .  S
C17        C1743   1.531       .  S
C19         C871   1.522       .  S
C21        C1372   1.546       .  S
C22          O23   1.277       .  A
C22        C1561   1.530       .  S
O24          C40   1.279       .  A
O24         Zn30   2.052       .  S
C25          O41   1.279       .  A
C25          O38   1.286       .  A
C25        C1742   1.520       .  S
O26          C39   1.276       .  A
O26         Cd33   2.130       .  S
O27          C45   1.303       .  A
O27         Cd36   2.204       .  S
O28          C42   1.285       .  A
O28         Cd32   2.130       .  S
O29          C40   1.281       .  A
O29         Cd32   2.185       .  S
Zn30         O41   2.057       .  S
Zn30         O43   2.125       .  S
Zn30         O35   1.940       .  S
O31          C42   1.288       .  A
O31         Cd36   2.168       .  S
Cd32         O34   2.192       .  S
Cd32         O35   2.051       .  S
Cd33         O37   2.130       .  S
Cd33         O46   2.113       .  S
Cd33         O35   2.126       .  S
O34          C44   1.301       .  A
O35         Cd36   2.058       .  S
Cd36         O38   2.177       .  S
O37          C44   1.279       .  A
C39          O43   1.296       .  A
C39        C1098   1.535       .  S
C40         C904   1.536       .  S
C42         C665   1.517       .  S
C44        C2080   1.546       .  S
C45          O46   1.276       .  A
C45        C1299   1.526       .  S
C47        C3309   1.473       .  S
C47          N48   1.360       .  A
C47          N52   1.359       .  A
N48          C49   1.363       .  A
C49        C3333   1.481       .  S
C49          N50   1.350       .  A
N50          C51   1.348       .  A
C51        C3324   1.478       .  S
C51          N52   1.351       .  A
C53        C3285   1.484       .  S
C53          N54   1.365       .  A
C53          N58   1.358       .  A
N54          C55   1.359       .  A
C55        C3273   1.477   1_565  S
C55          N56   1.351       .  A
N56          C57   1.345   1_556  A
C57        C3297   1.456       .  S
C57          N58   1.353   1_554  A
C59        C3249   1.474   1_556  S
C59          N60   1.356       .  A
C59          N64   1.354       .  A
N60          C61   1.354       .  A
C61        C3261   1.477   1_655  S
C61          N62   1.350       .  A
N62          C63   1.352       .  A
C63        C3237   1.473       .  S
C63          N64   1.354       .  A
C65        C3201   1.476       .  S
C65          N66   1.354   1_655  A
C65          N70   1.346       .  A
N66          C67   1.361       .  A
C67        C3213   1.487       .  S
C67          N68   1.364       .  A
N68          C69   1.356   1_465  A
C69        C3225   1.456       .  S
C69          N70   1.347   1_545  A
N71          C76   1.343       .  A
N71          C75   1.353       .  A
N71         H103   1.043       .  S
N72          C79   1.349       .  A
N72          C80   1.337       .  A
N73          C78   1.369       .  A
N73          C77   1.369       .  A
N73         H104   1.040       .  S
N74          C81   1.351       .  A
N74          C82   1.358       .  A
C75          C83   1.387       .  A
C75          C91   1.409       .  A
C76          C92   1.402       .  A
C76          C84   1.388       .  A
C77          C85   1.389       .  A
C77          C94   1.452       .  A
C78          C93   1.457       .  A
C78          C86   1.389       .  A
C79          C91   1.396       .  A
C79          C87   1.379       .  A
C80          C94   1.404       .  A
C80          C88   1.392       .  A
C81          C89   1.378       .  A
C81          C92   1.405       .  A
C82          C90   1.391       .  A
C82          C93   1.430       .  A
C83          C84   1.373       .  A
C83          H95   1.082       .  S
C84          H96   1.082       .  S
C85          C86   1.405       .  A
C85          H97   1.082       .  S
C86          H98   1.082       .  S
C87          C88   1.371       .  A
C87          H99   1.081       .  S
C88         H100   1.081       .  S
C89          C90   1.367       .  A
C89         H101   1.083       .  S
C90         H102   1.073       .  S
C91        C3216   1.488       .  S
C92        C3264   1.469       .  S
C93         C359   1.546       .  S
C94         C411   1.516       .  S
N105        C110   1.345       .  A
N105        C109   1.339       .  A
N105        H137   1.039       .  S
N106        C113   1.352       .  A
N106        C114   1.348       .  A
N107        C112   1.372       .  A
N107        C111   1.371       .  A
N107        H138   1.041       .  S
N108        C115   1.349       .  A
N108        C116   1.344       .  A
C109        C117   1.390       .  A
C109        C125   1.403       .  A
C110        C126   1.401       .  A
C110        C118   1.385       .  A
C111        C119   1.391       .  A
C111        C128   1.464       .  A
C112        C127   1.463       .  A
C112        C120   1.390       .  A
C113        C125   1.407       .  A
C113        C121   1.382       .  A
C114        C128   1.412       .  A
C114        C122   1.392       .  A
C115        C123   1.382       .  A
C115        C126   1.401       .  A
C116        C124   1.383       .  A
C116        C127   1.404       .  A
C117        C118   1.379       .  A
C117        H129   1.082       .  S
C118        H130   1.082       .  S
C119        C120   1.412       .  A
C119        H131   1.082       .  S
C120        H132   1.082       .  S
C121        C122   1.374       .  A
C121        H133   1.082       .  S
C122        H134   1.080       .  S
C123        C124   1.363       .  A
C123        H135   1.082       .  S
C124        H136   1.075       .  S
C125       C3252   1.472       .  S
C126       C3300   1.477       .  S
C127        C730   1.546       .  S
C128        C454   1.532       .  S
N139        C144   1.350       .  A
N139        C143   1.341       .  A
N139        H171   1.043       .  S
N140        C147   1.354       .  A
N140        C148   1.358       .  A
N141        C146   1.370       .  A
N141        C145   1.362       .  A
N141        H172   1.040       .  S
N142        C149   1.340       .  A
N142        C150   1.335       .  A
C143        C151   1.387       .  A
C143        C159   1.398       .  A
C144        C160   1.406       .  A
C144        C152   1.386       .  A
C145        C153   1.390       .  A
C145        C162   1.451       .  A
C146        C161   1.454       .  A
C146        C154   1.389       .  A
C147        C159   1.415       .  A
C147        C155   1.386       .  A
C148        C162   1.421       .  A
C148        C156   1.389       .  A
C149        C157   1.377       .  A
C149        C160   1.388       .  A
C150        C158   1.389       .  A
C150        C161   1.394       .  A
C151        C152   1.380       .  A
C151        H163   1.082       .  S
C152        H164   1.082       .  S
C153        C154   1.409       .  A
C153        H165   1.082       .  S
C154        H166   1.082       .  S
C155        C156   1.369       .  A
C155        H167   1.082       .  S
C156        H168   1.082       .  S
C157        C158   1.371       .  A
C157        H169   1.075       .  S
C158        H170   1.083       .  S
C159       C3204   1.468       .  S
C160       C3336   1.479       .  S
C161        C434   1.526       .  S
C162       C1236   1.525       .  S
N173        C178   1.341       .  A
N173        C177   1.352       .  A
N173        H205   1.043       .  S
N174        C181   1.341       .  A
N174        C182   1.331       .  A
N175        C180   1.366       .  A
N175        C179   1.372       .  A
N175        H206   1.041       .  S
N176        C183   1.353       .  A
N176        C184   1.355       .  A
C177        C185   1.386       .  A
C177        C193   1.408       .  A
C178        C194   1.400       .  A
C178        C186   1.388       .  A
C179        C187   1.390       .  A
C179        C196   1.458       .  A
C180        C195   1.456       .  A
C180        C188   1.390       .  A
C181        C193   1.392       .  A
C181        C189   1.381       .  A
C182        C196   1.394       .  A
C182        C190   1.389       .  A
C183        C191   1.385       .  A
C183        C194   1.412       .  A
C184        C192   1.388       .  A
C184        C195   1.418       .  A
C185        C186   1.374       .  A
C185        H197   1.082       .  S
C186        H198   1.083       .  S
C187        C188   1.410       .  A
C187        H199   1.082       .  S
C188        H200   1.082       .  S
C189        C190   1.377       .  A
C189        H201   1.082       .  S
C190        H202   1.081       .  S
C191        C192   1.369       .  A
C191        H203   1.082       .  S
C192        H204   1.080       .  S
C193       C3312   1.478       .  S
C194       C3240   1.475       .  S
C195        C368   1.530       .  S
C196       C1233   1.531       .  S
N207        C212   1.349       .  A
N207        C211   1.347       .  A
N207        H239   1.039       .  S
N208        C215   1.358       .  A
N208        C216   1.355       .  A
N209        C214   1.374       .  A
N209        C213   1.367       .  A
N209        H240   1.037       .  S
N210        C217   1.349       .  A
N210        C218   1.346       .  A
C211        C219   1.387       .  A
C211        C227   1.403       .  A
C212        C228   1.405       .  A
C212        C220   1.387       .  A
C213        C221   1.389       .  A
C213        C230   1.457       .  A
C214        C229   1.460       .  A
C214        C222   1.389       .  A
C215        C227   1.414       .  A
C215        C223   1.382       .  A
C216        C230   1.423       .  A
C216        C224   1.390       .  A
C217        C225   1.379       .  A
C217        C228   1.394       .  A
C218        C226   1.392       .  A
C218        C229   1.414       .  A
C219        C220   1.373       .  A
C219        H231   1.082       .  S
C220        H232   1.082       .  S
C221        C222   1.405       .  A
C221        H233   1.082       .  S
C222        H234   1.082       .  S
C223        C224   1.352       .  A
C223        H235   1.082       .  S
C224        H236   1.082       .  S
C225        C226   1.370       .  A
C225        H237   1.083   1_556  S
C226        H238   1.082       .  S
C227       C3321   1.479       .  S
C228       C3288   1.476       .  S
C229        C474   1.543       .  S
C230        C337   1.523       .  S
N241        C246   1.350       .  A
N241        C245   1.344       .  A
N241        H273   1.038       .  S
N242        C249   1.358       .  A
N242        C250   1.356       .  A
N243        C248   1.373       .  A
N243        C247   1.369       .  A
N243        H274   1.039       .  S
N244        C251   1.346       .  A
N244        C252   1.342       .  A
C245        C253   1.388       .  A
C245        C261   1.406       .  A
C246        C262   1.408       .  A
C246        C254   1.386       .  A
C247        C255   1.390       .  A
C247        C264   1.459       .  A
C248        C263   1.459       .  A
C248        C256   1.389       .  A
C249        C261   1.419       .  A
C249        C257   1.385       .  A
C250        C264   1.422       .  A
C250        C258   1.389       .  A
C251        C259   1.381       .  A
C251        C262   1.395       .  A
C252        C260   1.392       .  A
C252        C263   1.402       .  A
C253        C254   1.379       .  A
C253        H265   1.083       .  S
C254        H266   1.083       .  S
C255        C256   1.407       .  A
C255        H267   1.082       .  S
C256        H268   1.082       .  S
C257        C258   1.366       .  A
C257        H269   1.082       .  S
C258        H270   1.082       .  S
C259        C260   1.366       .  A
C259        H271   1.083       .  S
C260        H272   1.080       .  S
C261       C3276   1.483       .  S
C262       C3228   1.477       .  S
C263       C1943   1.523       .  S
C264        C749   1.530       .  S
O275        C291   1.289       .  A
O275       Zn281   2.161       .  S
C276        O292   1.285       .  A
C276        O289   1.286       .  A
C276       C1794   1.516       .  S
O277        C290   1.282       .  A
O277       Cd284   2.161       .  S
O278        C296   1.299       .  A
O278       Cd287   2.168       .  S
O279        C293   1.283       .  A
O279       Cd283   2.102       .  S
O280        C291   1.280       .  A
O280       Cd283   2.139       .  S
Zn281       O292   2.079       .  S
Zn281       O294   2.161       .  S
Zn281       O286   1.980       .  S
O282        C293   1.284       .  A
O282       Cd287   2.201       .  S
Cd283       O285   2.127       .  S
Cd283       O286   2.001       .  S
Cd284       O288   2.154       .  S
Cd284       O297   2.137       .  S
Cd284       O286   2.150       .  S
O285        C295   1.293       .  A
O286       Cd287   2.072       .  S
Cd287       O289   2.157       .  S
O288        C295   1.277       .  A
C290        O294   1.301       .  A
C290       C1993   1.555       .  S
C291        C905   1.534       .  S
C293        C510   1.532       .  S
C295       C1064   1.539       .  S
C296        O297   1.281       .  A
C296       C1515   1.525       .  S
O298        C314   1.289       .  A
O298       Zn304   2.116       .  S
C299        O315   1.286       .  A
C299        O312   1.284       .  A
C299       C2039   1.532       .  S
O300        C313   1.279       .  A
O300       Cd307   2.149       .  S
O301        C319   1.300       .  A
O301       Cd310   2.169       .  S
O302        C316   1.287       .  A
O302       Cd306   2.183       .  S
O303        C314   1.284       .  A
O303       Cd306   2.146       .  S
Zn304       O315   2.123       .  S
Zn304       O317   2.187       .  S
Zn304       O309   1.991       .  S
O305        C316   1.281       .  A
O305       Cd310   2.118       .  S
Cd306       O308   2.173       .  S
Cd306       O309   2.045       .  S
Cd307       O311   2.150       .  S
Cd307       O320   2.139       .  S
Cd307       O309   2.149       .  S
O308        C318   1.298       .  A
O309       Cd310   2.030       .  S
Cd310       O312   2.165       .  S
O311        C318   1.281       .  A
C313        O317   1.305       .  A
C313        C664   1.551       .  S
C314       C1333   1.520       .  S
C316       C1601   1.528       .  S
C318        C870   1.547       .  S
C319        O320   1.278       .  A
C319       C1795   1.530       .  S
O321        C337   1.286       .  A
O321       Zn327   2.120       .  S
C322        O338   1.286       .  A
C322        O335   1.284       .  A
C322        C803   1.522       .  S
O323        C336   1.277       .  A
O323       Cd330   2.140       .  S
O324        C342   1.301       .  A
O324       Cd333   2.198       .  S
O325        C339   1.282       .  A
O325       Cd329   2.144       .  S
O326        C337   1.283       .  A
O326       Cd329   2.144       .  S
Zn327       O338   2.107       .  S
Zn327       O340   2.157       .  S
Zn327       O332   1.981       .  S
O328        C339   1.290       .  A
O328       Cd333   2.183       .  S
Cd329       O331   2.181       .  S
Cd329       O332   2.035       .  S
Cd330       O334   2.139       .  S
Cd330       O343   2.123       .  S
Cd330       O332   2.135       .  S
O331        C341   1.300       .  A
O332       Cd333   2.056       .  S
Cd333       O335   2.157       .  S
O334        C341   1.279       .  A
C336        O340   1.301       .  A
C336       C1132   1.541       .  S
C339        C630   1.529       .  S
C341       C1406   1.531       .  S
C342        O343   1.279       .  A
C342       C1560   1.537       .  S
O344        C360   1.284       .  A
O344       Zn350   2.097       .  S
C345        O361   1.285       .  A
C345        O358   1.286       .  A
C345       C2147   1.526       .  S
O346        C359   1.281       .  A
O346       Cd353   2.138       .  S
O347        C365   1.304       .  A
O347       Cd356   2.197       .  S
O348        C362   1.283       .  A
O348       Cd352   2.149   1_554  S
O349        C360   1.285       .  A
O349       Cd352   2.155       .  S
Zn350       O361   2.094   1_556  S
Zn350       O363   2.168       .  S
Zn350       O355   1.976       .  S
O351        C362   1.289       .  A
O351       Cd356   2.161       .  S
Cd352       O354   2.163       .  S
Cd352       O355   2.044       .  S
Cd353       O357   2.112       .  S
Cd353       O366   2.117       .  S
Cd353       O355   2.124       .  S
O354        C364   1.298       .  A
O355       Cd356   2.044   1_556  S
Cd356       O358   2.174       .  S
O357        C364   1.274       .  A
C359        O363   1.297       .  A
C360       C1703   1.518       .  S
C362       C1065   1.525       .  S
C364        C802   1.522       .  S
C365        O366   1.276   1_554  A
C365        C585   1.529       .  S
O367        C383   1.282       .  A
O367       Zn373   2.077   1_455  S
C368        O384   1.283       .  A
C368        O381   1.287       .  A
O369        C382   1.281   1_554  A
O369       Cd376   2.151       .  S
O370        C388   1.305       .  A
O370       Cd379   2.223       .  S
O371        C385   1.286       .  A
O371       Cd375   2.168       .  S
O372        C383   1.280       .  A
O372       Cd375   2.142   1_456  S
Zn373       O384   2.108       .  S
Zn373       O386   2.116   1_655  S
Zn373       O378   1.974       .  S
O374        C385   1.287       .  A
O374       Cd379   2.146       .  S
Cd375       O377   2.177   1_655  S
Cd375       O378   2.046   1_554  S
Cd376       O380   2.151       .  S
Cd376       O389   2.164   1_455  S
Cd376       O378   2.145   1_454  S
O377        C387   1.303       .  A
O378       Cd379   2.037   1_556  S
Cd379       O381   2.169   1_554  S
O380        C387   1.280       .  A
C382        O386   1.296       .  A
C382       C1702   1.535       .  S
C383        C973   1.511       .  S
C385       C1863   1.529       .  S
C387       C1992   1.545       .  S
C388        O389   1.284       .  A
C388       C1167   1.561       .  S
O390        C406   1.287       .  A
O390       Zn396   2.119       .  S
C391        O407   1.287       .  A
C391        O404   1.286       .  A
C391       C2113   1.530       .  S
O392        C405   1.274       .  A
O392       Cd399   2.100   1_545  S
O393        C411   1.301       .  A
O393       Cd402   2.183   1_565  S
O394        C408   1.285       .  A
O394       Cd398   2.113   1_565  S
O395        C406   1.281       .  A
O395       Cd398   2.139       .  S
Zn396       O407   2.111       .  S
Zn396       O409   2.170       .  S
Zn396       O401   1.978       .  S
O397        C408   1.282       .  A
O397       Cd402   2.157   1_565  S
Cd398       O400   2.203   1_545  S
Cd398       O401   2.024       .  S
Cd399       O403   2.120       .  S
Cd399       O412   2.097       .  S
Cd399       O401   2.120   1_565  S
O400        C410   1.303       .  A
O401       Cd402   2.062       .  S
Cd402       O404   2.173       .  S
O403        C410   1.274       .  A
C405        O409   1.302       .  A
C405        C938   1.528       .  S
C406       C1332   1.521       .  S
C408       C1668   1.519       .  S
C410        C631   1.535       .  S
C411        O412   1.274       .  A
O413        C429   1.280       .  A
O413       Zn419   2.055       .  S
C414        O430   1.280       .  A
C414        O427   1.289       .  A
C414       C1407   1.533       .  S
O415        C428   1.279       .  A
O415       Cd422   2.141       .  S
O416        C434   1.303       .  A
O416       Cd425   2.195       .  S
O417        C431   1.289       .  A
O417       Cd421   2.177       .  S
O418        C429   1.289       .  A
O418       Cd421   2.213       .  S
Zn419       O430   2.085       .  S
Zn419       O432   2.140       .  S
Zn419       O424   1.965       .  S
O420        C431   1.291       .  A
O420       Cd425   2.173       .  S
Cd421       O423   2.204       .  S
Cd421       O424   2.066       .  S
Cd422       O426   2.117       .  S
Cd422       O435   2.120       .  S
Cd422       O424   2.129       .  S
O423        C433   1.305       .  A
O424       Cd425   2.050       .  S
Cd425       O427   2.200       .  S
O426        C433   1.276       .  A
C428        O432   1.292       .  A
C428        C550   1.548       .  S
C429       C1012   1.539       .  S
C431       C1635   1.537       .  S
C433       C1897   1.533       .  S
C434        O435   1.277       .  A
O436        C452   1.282       .  A
O436       Zn442   2.085       .  S
C437        O453   1.286       .  A
C437        O450   1.284       .  A
C437       C1896   1.530       .  S
O438        C451   1.275       .  A
O438       Cd445   2.106       .  S
O439        C457   1.299       .  A
O439       Cd448   2.190       .  S
O440        C454   1.289       .  A
O440       Cd444   2.181   1_655  S
O441        C452   1.290       .  A
O441       Cd444   2.185       .  S
Zn442       O453   2.094   1_455  S
Zn442       O455   2.167       .  S
Zn442       O447   1.975       .  S
O443        C454   1.289       .  A
O443       Cd448   2.156       .  S
Cd444       O446   2.194       .  S
Cd444       O447   2.048       .  S
Cd445       O449   2.097       .  S
Cd445       O458   2.109       .  S
Cd445       O447   2.125       .  S
O446        C456   1.303       .  A
O447       Cd448   2.048   1_455  S
Cd448       O450   2.178       .  S
O449        C456   1.272       .  A
C451        O455   1.299       .  A
C451       C1514   1.536       .  S
C452        C698   1.528       .  S
C456       C2148   1.522       .  S
C457        O458   1.273   1_655  A
C457       C1166   1.525       .  S
O459        C475   1.277       .  A
O459       Zn465   2.048   1_546  S
C460        O476   1.282       .  A
C460        O473   1.285       .  A
C460       C1201   1.535       .  S
O461        C474   1.284       .  A
O461       Cd468   2.168       .  S
O462        C480   1.301       .  A
O462       Cd471   2.212       .  S
O463        C477   1.288       .  A
O463       Cd467   2.174   1_554  S
O464        C475   1.287       .  A
O464       Cd467   2.208       .  S
Zn465       O476   2.111       .  S
Zn465       O478   2.118   1_554  S
Zn465       O470   1.960       .  S
O466        C477   1.285       .  A
O466       Cd471   2.135   1_545  S
Cd467       O469   2.182       .  S
Cd467       O470   2.081   1_546  S
Cd468       O472   2.154       .  S
Cd468       O481   2.158   1_556  S
Cd468       O470   2.142   1_556  S
O469        C479   1.300       .  A
O470       Cd471   2.040       .  S
Cd471       O473   2.175       .  S
O472        C479   1.283   1_565  A
C474        O478   1.296       .  A
C475       C1475   1.540       .  S
C477       C2079   1.524       .  S
C479        C939   1.539       .  S
C480        O481   1.282       .  A
C480        C584   1.563       .  S
C482       C3177   1.491       .  S
C482        N483   1.362       .  A
C482        N487   1.356       .  A
N483        C484   1.366       .  A
C484       C3189   1.485       .  S
C484        N485   1.355       .  A
N485        C486   1.350       .  A
C486       C3165   1.478       .  S
C486        N487   1.348       .  A
N488        C493   1.353       .  A
N488        C492   1.345       .  A
N488        H520   1.035       .  S
N489        C496   1.356       .  A
N489        C497   1.355       .  A
N490        C495   1.370       .  A
N490        C494   1.364       .  A
N490        H521   1.035       .  S
N491        C498   1.347       .  A
N491        C499   1.344       .  A
C492        C500   1.393       .  A
C492        C508   1.416       .  A
C493        C509   1.410       .  A
C493        C501   1.383       .  A
C494        C502   1.395       .  A
C494        C511   1.464       .  A
C495        C510   1.456       .  A
C495        C503   1.386       .  A
C496        C508   1.420       .  A
C496        C504   1.384       .  A
C497        C511   1.430       .  A
C497        C505   1.391       .  A
C498        C506   1.386       .  A
C498        C509   1.393       .  A
C499        C507   1.384       .  A
C499        C510   1.396       .  A
C500        C501   1.377       .  A
C500        H512   1.082       .  S
C501        H513   1.082       .  S
C502        C503   1.412       .  A
C502        H514   1.082       .  S
C503        H515   1.082       .  S
C504        C505   1.368       .  A
C504        H516   1.082       .  S
C505        H517   1.082       .  S
C506        C507   1.369       .  A
C506        H518   1.083       .  S
C507        H519   1.082       .  S
C508       C3153   1.479       .  S
C509       C3180   1.481       .  S
C522       C3117   1.479       .  S
C522        N523   1.362       .  A
C522        N527   1.354       .  A
N523        C524   1.360       .  A
C524       C3141   1.463   1_565  S
C524        N525   1.352       .  A
N525        C526   1.346       .  A
C526       C3129   1.474       .  S
C526        N527   1.348       .  A
N528        C533   1.335       .  A
N528        C532   1.350       .  A
N528        H560   1.042       .  S
N529        C536   1.337       .  A
N529        C537   1.326       .  A
N530        C535   1.362       .  A
N530        C534   1.370       .  A
N530        H561   1.042       .  S
N531        C538   1.360       .  A
N531        C539   1.364       .  A
C532        C540   1.386       .  A
C532        C548   1.407       .  A
C533        C549   1.398       .  A
C533        C541   1.389       .  A
C534        C542   1.387       .  A
C534        C551   1.449       .  A
C535        C550   1.453       .  A
C535        C543   1.392       .  A
C536        C548   1.381       .  A
C536        C544   1.379       .  A
C537        C551   1.385       .  A
C537        C545   1.384       .  A
C538        C546   1.378       .  A
C538        C549   1.420       .  A
C539        C547   1.391       .  A
C539        C550   1.439       .  A
C540        C541   1.379       .  A
C540        H552   1.082       .  S
C541        H553   1.083       .  S
C542        C543   1.406       .  A
C542        H554   1.082       .  S
C543        H555   1.082       .  S
C544        C545   1.374       .  A
C544        H556   1.083       .  S
C545        H557   1.066       .  S
C546        C547   1.364       .  A
C546        H558   1.082       .  S
C547        H559   1.071       .  S
C548       C3120   1.464       .  S
C549       C3105   1.479       .  S
C551        C731   1.528       .  S
N562        C567   1.338       .  A
N562        C566   1.350       .  A
N562        H594   1.042       .  S
N563        C570   1.341       .  A
N563        C571   1.331       .  A
N564        C569   1.371       .  A
N564        C568   1.372       .  A
N564        H595   1.042       .  S
N565        C572   1.354       .  A
N565        C573   1.360       .  A
C566        C574   1.389       .  A
C566        C582   1.410       .  A
C567        C583   1.392       .  A
C567        C575   1.386       .  A
C568        C576   1.390       .  A
C568        C585   1.461       .  A
C569        C584   1.465       .  A
C569        C577   1.392       .  A
C570        C582   1.391       .  A
C570        C578   1.380       .  A
C571        C585   1.395       .  A
C571        C579   1.396       .  A
C572        C580   1.379       .  A
C572        C583   1.411       .  A
C573        C581   1.390       .  A
C573        C584   1.431       .  A
C574        C575   1.375       .  A
C574        H586   1.082       .  S
C575        H587   1.082       .  S
C576        C577   1.412       .  A
C576        H588   1.082   1_554  S
C577        H589   1.082   1_554  S
C578        C579   1.376       .  A
C578        H590   1.082       .  S
C579        H591   1.083       .  S
C580        C581   1.367       .  A
C580        H592   1.083       .  S
C581        H593   1.071       .  S
C582       C3192   1.477       .  S
C583       C3132   1.466       .  S
C596       C3096   1.466       .  S
C596        N597   1.354   1_565  A
C596        N601   1.357       .  A
N597        C598   1.348       .  A
C598       C3084   1.480       .  S
C598        N599   1.353       .  A
N599        C600   1.352       .  A
C600       C3069   1.473       .  S
C600        N601   1.362   1_545  A
C602       C3057   1.479       .  S
C602        N603   1.357       .  A
C602        N607   1.352       .  A
N603        C604   1.360       .  A
C604       C3156   1.469       .  S
C604        N605   1.358       .  A
N605        C606   1.354       .  A
C606       C3108   1.477       .  S
C606        N607   1.347       .  A
N608        C613   1.342       .  A
N608        C612   1.352       .  A
N608        H640   1.042       .  S
N609        C616   1.340       .  A
N609        C617   1.333       .  A
N610        C615   1.368       .  A
N610        C614   1.374       .  A
N610        H641   1.039       .  S
N611        C618   1.353       .  A
N611        C619   1.353       .  A
C612        C620   1.388       .  A
C612        C628   1.410       .  A
C613        C629   1.399       .  A
C613        C621   1.386       .  A
C614        C622   1.389       .  A
C614        C631   1.462       .  A
C615        C630   1.461       .  A
C615        C623   1.390       .  A
C616        C628   1.388       .  A
C616        C624   1.380       .  A
C617        C631   1.393       .  A
C617        C625   1.389       .  A
C618        C626   1.381       .  A
C618        C629   1.403       .  A
C619        C627   1.392       .  A
C619        C630   1.419       .  A
C620        C621   1.372       .  A
C620        H632   1.081       .  S
C621        H633   1.082       .  S
C622        C623   1.410       .  A
C622        H634   1.082       .  S
C623        H635   1.082       .  S
C624        C625   1.375       .  A
C624        H636   1.082   1_565  S
C625        H637   1.082   1_565  S
C626        C627   1.361       .  A
C626        H638   1.082       .  S
C627        H639   1.082       .  S
C628       C3072   1.476       .  S
C629       C3060   1.466       .  S
N642        C647   1.344       .  A
N642        C646   1.343       .  A
N642        H674   1.042       .  S
N643        C650   1.354       .  A
N643        C651   1.349       .  A
N644        C649   1.378       .  A
N644        C648   1.368       .  A
N644        H675   1.039       .  S
N645        C652   1.346       .  A
N645        C653   1.342       .  A
C646        C654   1.386       .  A
C646        C662   1.396       .  A
C647        C663   1.400       .  A
C647        C655   1.387       .  A
C648        C656   1.390       .  A
C648        C665   1.462       .  A
C649        C664   1.468       .  A
C649        C657   1.390       .  A
C650        C662   1.398       .  A
C650        C658   1.378       .  A
C651        C665   1.421       .  A
C651        C659   1.399       .  A
C652        C660   1.380       .  A
C652        C663   1.393       .  A
C653        C661   1.386       .  A
C653        C664   1.406       .  A
C654        C655   1.378       .  A
C654        H666   1.082       .  S
C655        H667   1.082       .  S
C656        C657   1.410       .  A
C656        H668   1.082       .  S
C657        H669   1.082       .  S
C658        C659   1.359       .  A
C658        H670   1.083       .  S
C659        H671   1.081       .  S
C660        C661   1.370       .  A
C660        H672   1.082       .  S
C661        H673   1.079       .  S
C662       C3144   1.470       .  S
C663       C3081   1.467       .  S
N676        C681   1.347       .  A
N676        C680   1.350       .  A
N676        H708   1.041       .  S
N677        C684   1.351       .  A
N677        C685   1.349       .  A
N678        C683   1.372       .  A
N678        C682   1.373       .  A
N678        H709   1.036       .  S
N679        C686   1.356       .  A
N679        C687   1.354       .  A
C680        C688   1.387       .  A
C680        C696   1.406       .  A
C681        C697   1.402       .  A
C681        C689   1.386       .  A
C682        C690   1.390       .  A
C682        C699   1.463       .  A
C683        C698   1.461       .  A
C683        C691   1.389       .  A
C684        C696   1.401       .  A
C684        C692   1.378       .  A
C685        C699   1.421       .  A
C685        C693   1.398       .  A
C686        C694   1.384       .  A
C686        C697   1.412       .  A
C687        C695   1.393       .  A
C687        C698   1.424       .  A
C688        C689   1.373       .  A
C688        H700   1.082       .  S
C689        H701   1.082       .  S
C690        C691   1.404       .  A
C690        H702   1.082   1_455  S
C691        H703   1.082   1_455  S
C692        C693   1.361       .  A
C692        H704   1.083       .  S
C693        H705   1.077       .  S
C694        C695   1.356       .  A
C694        H706   1.081       .  S
C695        H707   1.082       .  S
C696       C3093   1.485       .  S
C697       C3168   1.477       .  S
C699       C1253   1.526       .  S
O710        C726   1.293       .  A
O710       Zn716   2.169       .  S
C711        O727   1.293       .  A
C711        O724   1.284       .  A
C711       C1298   1.542       .  S
O712        C725   1.278       .  A
O712       Cd719   2.126   1_545  S
O713        C731   1.300       .  A
O713       Cd722   2.164       .  S
O714        C728   1.284       .  A
O714       Cd718   2.129   1_565  S
O715        C726   1.281       .  A
O715       Cd718   2.136       .  S
Zn716       O727   2.193       .  S
Zn716       O729   2.182       .  S
Zn716       O721   1.998       .  S
O717        C728   1.281       .  A
O717       Cd722   2.156       .  S
Cd718       O720   2.159   1_545  S
Cd718       O721   2.021       .  S
Cd719       O723   2.148       .  S
Cd719       O732   2.127       .  S
Cd719       O721   2.159   1_565  S
O720        C730   1.297       .  A
O721       Cd722   2.034   1_545  S
Cd722       O724   2.131   1_565  S
O723        C730   1.275       .  A
C725        O729   1.306       .  A
C725       C1930   1.546       .  S
C726       C2179   1.536       .  S
C728       C1200   1.522       .  S
C731        O732   1.276       .  A
O733        C749   1.286       .  A
O733       Zn739   2.120       .  S
C734        O750   1.285       .  A
C734        O747   1.283       .  A
C734       C1862   1.523       .  S
O735        C748   1.279       .  A
O735       Cd742   2.154       .  S
O736        C754   1.299       .  A
O736       Cd745   2.168   1_554  S
O737        C751   1.286       .  A
O737       Cd741   2.161       .  S
O738        C749   1.287       .  A
O738       Cd741   2.165       .  S
Zn739       O750   2.110   1_556  S
Zn739       O752   2.136   1_556  S
Zn739       O744   1.988       .  S
O740        C751   1.282       .  A
O740       Cd745   2.125       .  S
Cd741       O743   2.183       .  S
Cd741       O744   2.037       .  S
Cd742       O746   2.136   1_554  S
Cd742       O755   2.119       .  S
Cd742       O744   2.138   1_554  S
O743        C753   1.301       .  A
O744       Cd745   2.037       .  S
Cd745       O747   2.155   1_556  S
O746        C753   1.280       .  A
C748        O752   1.298       .  A
C748       C2182   1.549       .  S
C751        C837   1.516       .  S
C753       C1474   1.537       .  S
C754        O755   1.276       .  A
C754       C1099   1.521       .  S
C756       C3024   1.477       .  S
C756        N757   1.358       .  A
C756        N761   1.358       .  A
N757        C758   1.359       .  A
C758       C3048   1.474       .  S
C758        N759   1.352       .  A
N759        C760   1.350       .  A
C760       C3033   1.459       .  S
C760        N761   1.352       .  A
C762       C2985   1.463       .  S
C762        N763   1.351       .  A
C762        N767   1.353       .  A
N763        C764   1.359   1_556  A
C764       C3009   1.464       .  S
C764        N765   1.357       .  A
N765        C766   1.357       .  A
C766       C2997   1.479       .  S
C766        N767   1.351   1_554  A
C768       C2973   1.484       .  S
C768        N769   1.354       .  A
C768        N773   1.360       .  A
N769        C770   1.351       .  A
C770       C2949   1.472       .  S
C770        N771   1.349       .  A
N771        C772   1.354       .  A
C772       C2961   1.463       .  S
C772        N773   1.356       .  A
C774       C2928   1.485       .  S
C774        N775   1.360       .  A
C774        N779   1.352       .  A
N775        C776   1.364   1_556  A
C776       C2913   1.483       .  S
C776        N777   1.353       .  A
N777        C778   1.352       .  A
C778       C2937   1.457       .  S
C778        N779   1.343   1_554  A
N780        C785   1.351       .  A
N780        C784   1.344       .  A
N780        H812   1.041       .  S
N781        C788   1.354       .  A
N781        C789   1.357       .  A
N782        C787   1.368       .  A
N782        C786   1.361       .  A
N782        H813   1.040       .  S
N783        C790   1.341       .  A
N783        C791   1.335       .  A
C784        C792   1.388       .  A
C784        C800   1.405       .  A
C785        C801   1.409       .  A
C785        C793   1.387       .  A
C786        C794   1.389       .  A
C786        C803   1.447       .  A
C787        C802   1.450       .  A
C787        C795   1.389       .  A
C788        C800   1.417       .  A
C788        C796   1.386       .  A
C789        C803   1.420       .  A
C789        C797   1.389       .  A
C790        C798   1.378       .  A
C790        C801   1.392       .  A
C791        C799   1.390       .  A
C791        C802   1.397       .  A
C792        C793   1.376       .  A
C792        H804   1.082       .  S
C793        H805   1.082       .  S
C794        C795   1.407       .  A
C794        H806   1.082       .  S
C795        H807   1.082       .  S
C796        C797   1.369       .  A
C796        H808   1.082       .  S
C797        H809   1.082       .  S
C798        C799   1.372       .  A
C798        H810   1.076   1_556  S
C799        H811   1.082       .  S
C800       C2964   1.482       .  S
C801       C2916   1.474       .  S
N814        C819   1.347       .  A
N814        C818   1.345       .  A
N814        H846   1.042       .  S
N815        C822   1.352       .  A
N815        C823   1.353       .  A
N816        C821   1.369       .  A
N816        C820   1.362       .  A
N816        H847   1.041       .  S
N817        C824   1.342       .  A
N817        C825   1.334       .  A
C818        C826   1.387       .  A
C818        C834   1.403       .  A
C819        C835   1.408       .  A
C819        C827   1.387       .  A
C820        C828   1.389       .  A
C820        C837   1.448       .  A
C821        C836   1.453       .  A
C821        C829   1.390       .  A
C822        C834   1.412       .  A
C822        C830   1.386       .  A
C823        C837   1.414       .  A
C823        C831   1.390       .  A
C824        C832   1.384       .  A
C824        C835   1.392       .  A
C825        C833   1.387       .  A
C825        C836   1.395       .  A
C826        C827   1.379       .  A
C826        H838   1.082       .  S
C827        H839   1.082       .  S
C828        C829   1.408       .  A
C828        H840   1.082       .  S
C829        H841   1.082       .  S
C830        C831   1.365       .  A
C830        H842   1.082       .  S
C831        H843   1.082       .  S
C832        C833   1.373       .  A
C832        H844   1.083       .  S
C833        H845   1.080       .  S
C834       C2988   1.484       .  S
C835       C2952   1.468       .  S
C836       C1232   1.523       .  S
N848        C853   1.345       .  A
N848        C852   1.341       .  A
N848        H880   1.038       .  S
N849        C856   1.355       .  A
N849        C857   1.350       .  A
N850        C855   1.375       .  A
N850        C854   1.371       .  A
N850        H881   1.039       .  S
N851        C858   1.353       .  A
N851        C859   1.347       .  A
C852        C860   1.385       .  A
C852        C868   1.394       .  A
C853        C869   1.403       .  A
C853        C861   1.388       .  A
C854        C862   1.388       .  A
C854        C871   1.460       .  A
C855        C870   1.464       .  A
C855        C863   1.391       .  A
C856        C868   1.403       .  A
C856        C864   1.379       .  A
C857        C871   1.419       .  A
C857        C865   1.394       .  A
C858        C866   1.383       .  A
C858        C869   1.408       .  A
C859        C867   1.388       .  A
C859        C870   1.410       .  A
C860        C861   1.378       .  A
C860        H872   1.083       .  S
C861        H873   1.083       .  S
C862        C863   1.405       .  A
C862        H874   1.082       .  S
C863        H875   1.081       .  S
C864        C865   1.357       .  A
C864        H876   1.082       .  S
C865        H877   1.081       .  S
C866        C867   1.371       .  A
C866        H878   1.082       .  S
C867        H879   1.082       .  S
C868       C2976   1.474       .  S
C869       C3036   1.485       .  S
N882        C887   1.350       .  A
N882        C886   1.342       .  A
N882        H914   1.043       .  S
N883        C890   1.352       .  A
N883        C891   1.357       .  A
N884        C889   1.371       .  A
N884        C888   1.365       .  A
N884        H915   1.041       .  S
N885        C892   1.339       .  A
N885        C893   1.333       .  A
C886        C894   1.387       .  A
C886        C902   1.402       .  A
C887        C903   1.411       .  A
C887        C895   1.387       .  A
C888        C896   1.390       .  A
C888        C905   1.456       .  A
C889        C904   1.458       .  A
C889        C897   1.390       .  A
C890        C902   1.416       .  A
C890        C898   1.387       .  A
C891        C905   1.416       .  A
C891        C899   1.387       .  A
C892        C900   1.381       .  A
C892        C903   1.390       .  A
C893        C901   1.393       .  A
C893        C904   1.398       .  A
C894        C895   1.381       .  A
C894        H906   1.082       .  S
C895        H907   1.082       .  S
C896        C897   1.412       .  A
C896        H908   1.082       .  S
C897        H909   1.082       .  S
C898        C899   1.365       .  A
C898        H910   1.081       .  S
C899        H911   1.082       .  S
C900        C901   1.376       .  A
C900        H912   1.083       .  S
C901        H913   1.082       .  S
C902       C2940   1.476       .  S
C903       C3000   1.475       .  S
N916        C921   1.347       .  A
N916        C920   1.346       .  A
N916        H948   1.044       .  S
N917        C924   1.349       .  A
N917        C925   1.347       .  A
N918        C923   1.369       .  A
N918        C922   1.372       .  A
N918        H949   1.040       .  S
N919        C926   1.350       .  A
N919        C927   1.346       .  A
C920        C928   1.388       .  A
C920        C936   1.405       .  A
C921        C937   1.403       .  A
C921        C929   1.386       .  A
C922        C930   1.389       .  A
C922        C939   1.459       .  A
C923        C938   1.459       .  A
C923        C931   1.390       .  A
C924        C936   1.397       .  A
C924        C932   1.377   1_556  A
C925        C939   1.414       .  A
C925        C933   1.393       .  A
C926        C934   1.379       .  A
C926        C937   1.396       .  A
C927        C935   1.390       .  A
C927        C938   1.411       .  A
C928        C929   1.379       .  A
C928        H940   1.082       .  S
C929        H941   1.082       .  S
C930        C931   1.408       .  A
C930        H942   1.082       .  S
C931        H943   1.082       .  S
C932        C933   1.368   1_554  A
C932        H944   1.080       .  S
C933        H945   1.083   1_556  S
C934        C935   1.369       .  A
C934        H946   1.082       .  S
C935        H947   1.080       .  S
C936       C3012   1.480       .  S
C937       C3021   1.482       .  S
N950        C955   1.343       .  A
N950        C954   1.344       .  A
N950        H982   1.038       .  S
N951        C958   1.353       .  A
N951        C959   1.347       .  A
N952        C957   1.370       .  A
N952        C956   1.367       .  A
N952        H983   1.040       .  S
N953        C960   1.349       .  A
N953        C961   1.345       .  A
C954        C962   1.386       .  A
C954        C970   1.402       .  A
C955        C971   1.399       .  A
C955        C963   1.385       .  A
C956        C964   1.389   1_455  A
C956        C973   1.452       .  A
C957        C972   1.455       .  A
C957        C965   1.389   1_455  A
C958        C970   1.408       .  A
C958        C966   1.386       .  A
C959        C973   1.406       .  A
C959        C967   1.390       .  A
C960        C968   1.385       .  A
C960        C971   1.404       .  A
C961        C969   1.391       .  A
C961        C972   1.405       .  A
C962        C963   1.379       .  A
C962        H974   1.082       .  S
C963        H975   1.082       .  S
C964        C965   1.406       .  A
C964        H976   1.082       .  S
C965        H977   1.082       .  S
C966        C967   1.360       .  A
C966        H978   1.081       .  S
C967        H979   1.082       .  S
C968        C969   1.365       .  A
C968        H980   1.083       .  S
C969        H981   1.081       .  S
C970       C2925   1.477       .  S
C971       C3045   1.471       .  S
C972       C1958   1.515       .  S
C984       C2877   1.489       .  S
C984        N985   1.355       .  A
C984        N989   1.361       .  A
N985        C986   1.352       .  A
C986       C2901   1.472       .  S
C986        N987   1.353       .  A
N987        C988   1.362       .  A
C988       C2889   1.486       .  S
C988        N989   1.357       .  A
N990        C995   1.347       .  A
N990        C994   1.334       .  A
N990       H1022   1.044       .  S
N991        C998   1.355       .  A
N991        C999   1.358       .  A
N992        C997   1.373       .  A
N992        C996   1.366       .  A
N992       H1023   1.042       .  S
N993       C1000   1.341       .  A
N993       C1001   1.334       .  A
C994       C1002   1.390       .  A
C994       C1010   1.393       .  A
C995       C1011   1.397       .  A
C995       C1003   1.384       .  A
C996       C1004   1.393       .  A
C996       C1013   1.462       .  A
C997       C1012   1.458       .  A
C997       C1005   1.388       .  A
C998       C1010   1.410       .  A
C998       C1006   1.378       .  A
C999       C1013   1.435       .  A
C999       C1007   1.395       .  A
C1000      C1008   1.371       .  A
C1000      C1011   1.381       .  A
C1001      C1009   1.392       .  A
C1001      C1012   1.397       .  A
C1002      C1003   1.380       .  A
C1002      H1014   1.082       .  S
C1003      H1015   1.082       .  S
C1004      C1005   1.411       .  A
C1004      H1016   1.082       .  S
C1005      H1017   1.082       .  S
C1006      C1007   1.373       .  A
C1006      H1018   1.083       .  S
C1007      H1019   1.080       .  S
C1008      C1009   1.375       .  A
C1008      H1020   1.079       .  S
C1009      H1021   1.081       .  S
C1010      C2865   1.465       .  S
C1011      C2880   1.473       .  S
C1024      C2853   1.465   1_554  S
C1024      N1025   1.357       .  A
C1024      N1029   1.359       .  A
N1025      C1026   1.351       .  A
C1026      C2841   1.463       .  S
C1026      N1027   1.349       .  A
N1027      C1028   1.353       .  A
C1028      C2829   1.484       .  S
C1028      N1029   1.360       .  A
C1030      C2793   1.479       .  S
C1030      N1031   1.356       .  A
C1030      N1035   1.352       .  A
N1031      C1032   1.355       .  A
C1032      C2805   1.465       .  S
C1032      N1033   1.355       .  A
N1033      C1034   1.351       .  A
C1034      C2817   1.471   1_554  S
C1034      N1035   1.350       .  A
C1036      C2781   1.465       .  S
C1036      N1037   1.357       .  A
C1036      N1041   1.351       .  A
N1037      C1038   1.359       .  A
C1038      C2769   1.483       .  S
C1038      N1039   1.356       .  A
N1039      C1040   1.352       .  A
C1040      C2868   1.470       .  S
C1040      N1041   1.349       .  A
N1042      C1047   1.346       .  A
N1042      C1046   1.340       .  A
N1042      H1074   1.039       .  S
N1043      C1050   1.352       .  A
N1043      C1051   1.349       .  A
N1044      C1049   1.371       .  A
N1044      C1048   1.369       .  A
N1044      H1075   1.041       .  S
N1045      C1052   1.348       .  A
N1045      C1053   1.342       .  A
C1046      C1054   1.388       .  A
C1046      C1062   1.400       .  A
C1047      C1063   1.402       .  A
C1047      C1055   1.386       .  A
C1048      C1056   1.391       .  A
C1048      C1065   1.460       .  A
C1049      C1064   1.458       .  A
C1049      C1057   1.389       .  A
C1050      C1062   1.409       .  A
C1050      C1058   1.384       .  A
C1051      C1065   1.412       .  A
C1051      C1059   1.391       .  A
C1052      C1060   1.386       .  A
C1052      C1063   1.402       .  A
C1053      C1061   1.389       .  A
C1053      C1064   1.400       .  A
C1054      C1055   1.378       .  A
C1054      H1066   1.081       .  S
C1055      H1067   1.082       .  S
C1056      C1057   1.411       .  A
C1056      H1068   1.082       .  S
C1057      H1069   1.082       .  S
C1058      C1059   1.366       .  A
C1058      H1070   1.082       .  S
C1059      H1071   1.080       .  S
C1060      C1061   1.367       .  A
C1060      H1072   1.082       .  S
C1061      H1073   1.083       .  S
C1062      C2796   1.470       .  S
C1063      C2772   1.472       .  S
N1076      C1081   1.342       .  A
N1076      C1080   1.346       .  A
N1076      H1108   1.043       .  S
N1077      C1084   1.347       .  A
N1077      C1085   1.339       .  A
N1078      C1083   1.367       .  A
N1078      C1082   1.366       .  A
N1078      H1109   1.041       .  S
N1079      C1086   1.348       .  A
N1079      C1087   1.348       .  A
C1080      C1088   1.388       .  A
C1080      C1096   1.405       .  A
C1081      C1097   1.398       .  A
C1081      C1089   1.387       .  A
C1082      C1090   1.390       .  A
C1082      C1099   1.453       .  A
C1083      C1098   1.454       .  A
C1083      C1091   1.390       .  A
C1084      C1096   1.389       .  A
C1084      C1092   1.377       .  A
C1085      C1099   1.404       .  A
C1085      C1093   1.392       .  A
C1086      C1094   1.379       .  A
C1086      C1097   1.393       .  A
C1087      C1095   1.389       .  A
C1087      C1098   1.415       .  A
C1088      C1089   1.379       .  A
C1088      H1100   1.082       .  S
C1089      H1101   1.082       .  S
C1090      C1091   1.410       .  A
C1090      H1102   1.082       .  S
C1091      H1103   1.082       .  S
C1092      C1093   1.371       .  A
C1092      H1104   1.081       .  S
C1093      H1105   1.082       .  S
C1094      C1095   1.366       .  A
C1094      H1106   1.081       .  S
C1095      H1107   1.078       .  S
C1096      C2832   1.473       .  S
C1097      C2784   1.466       .  S
N1110      C1115   1.344       .  A
N1110      C1114   1.346       .  A
N1110      H1142   1.040       .  S
N1111      C1118   1.357       .  A
N1111      C1119   1.350       .  A
N1112      C1117   1.374       .  A
N1112      C1116   1.362       .  A
N1112      H1143   1.037       .  S
N1113      C1120   1.346       .  A
N1113      C1121   1.342       .  A
C1114      C1122   1.387       .  A
C1114      C1130   1.401       .  A
C1115      C1131   1.403       .  A
C1115      C1123   1.387       .  A
C1116      C1124   1.390       .  A
C1116      C1133   1.454       .  A
C1117      C1132   1.459       .  A
C1117      C1125   1.389       .  A
C1118      C1130   1.407       .  A
C1118      C1126   1.379       .  A
C1119      C1133   1.422       .  A
C1119      C1127   1.396       .  A
C1120      C1128   1.383       .  A
C1120      C1131   1.393       .  A
C1121      C1129   1.380       .  A
C1121      C1132   1.400       .  A
C1122      C1123   1.378       .  A
C1122      H1134   1.082       .  S
C1123      H1135   1.082       .  S
C1124      C1125   1.407       .  A
C1124      H1136   1.082       .  S
C1125      H1137   1.082       .  S
C1126      C1127   1.359       .  A
C1126      H1138   1.082       .  S
C1127      H1139   1.082       .  S
C1128      C1129   1.366       .  A
C1128      H1140   1.083       .  S
C1129      H1141   1.074       .  S
C1130      C2856   1.479       .  S
C1131      C2820   1.467       .  S
C1133      C1230   1.507       .  S
N1144      C1149   1.350       .  A
N1144      C1148   1.341       .  A
N1144      H1176   1.043       .  S
N1145      C1152   1.351       .  A
N1145      C1153   1.358       .  A
N1146      C1151   1.370       .  A
N1146      C1150   1.373       .  A
N1146      H1177   1.042       .  S
N1147      C1154   1.345       .  A
N1147      C1155   1.334       .  A
C1148      C1156   1.385       .  A
C1148      C1164   1.396       .  A
C1149      C1165   1.409       .  A
C1149      C1157   1.388       .  A
C1150      C1158   1.390       .  A
C1150      C1167   1.463       .  A
C1151      C1166   1.459       .  A
C1151      C1159   1.390       .  A
C1152      C1164   1.408       .  A
C1152      C1160   1.382       .  A
C1153      C1167   1.423       .  A
C1153      C1161   1.387       .  A
C1154      C1162   1.382       .  A
C1154      C1165   1.397       .  A
C1155      C1163   1.395       .  A
C1155      C1166   1.401       .  A
C1156      C1157   1.380       .  A
C1156      H1168   1.082       .  S
C1157      H1169   1.082       .  S
C1158      C1159   1.410       .  A
C1158      H1170   1.082       .  S
C1159      H1171   1.082   1_655  S
C1160      C1161   1.368       .  A
C1160      H1172   1.083       .  S
C1161      H1173   1.078       .  S
C1162      C1163   1.375       .  A
C1162      H1174   1.083       .  S
C1163      H1175   1.083       .  S
C1164      C2844   1.470       .  S
C1165      C2892   1.482       .  S
N1178      C1183   1.354       .  A
N1178      C1182   1.338       .  A
N1178      H1210   1.043       .  S
N1179      C1186   1.353       .  A
N1179      C1187   1.359       .  A
N1180      C1185   1.368       .  A
N1180      C1184   1.366       .  A
N1180      H1211   1.042       .  S
N1181      C1188   1.343       .  A
N1181      C1189   1.334       .  A
C1182      C1190   1.388       .  A
C1182      C1198   1.402       .  A
C1183      C1199   1.413       .  A
C1183      C1191   1.386       .  A
C1184      C1192   1.390       .  A
C1184      C1201   1.453       .  A
C1185      C1200   1.452       .  A
C1185      C1193   1.389       .  A
C1186      C1198   1.420       .  A
C1186      C1194   1.389       .  A
C1187      C1201   1.418       .  A
C1187      C1195   1.385       .  A
C1188      C1196   1.376       .  A
C1188      C1199   1.393       .  A
C1189      C1197   1.388       .  A
C1189      C1200   1.391       .  A
C1190      C1191   1.382       .  A
C1190      H1202   1.082       .  S
C1191      H1203   1.082       .  S
C1192      C1193   1.409       .  A
C1192      H1204   1.082   1_565  S
C1193      H1205   1.082   1_565  S
C1194      C1195   1.368       .  A
C1194      H1206   1.082       .  S
C1195      H1207   1.081       .  S
C1196      C1197   1.381       .  A
C1196      H1208   1.081       .  S
C1197      H1209   1.082       .  S
C1198      C2808   1.471       .  S
C1199      C2904   1.498       .  S
O1212      C1228   1.282       .  A
O1212     Zn1218   2.109       .  S
C1213      O1229   1.288       .  A
C1213      O1226   1.283       .  A
C1213      C1634   1.517       .  S
O1214      C1227   1.275       .  A
O1214     Cd1221   2.106       .  S
O1215      C1233   1.302       .  A
O1215     Cd1224   2.198       .  S
O1216      C1230   1.281       .  A
O1216     Cd1220   2.132       .  S
O1217      C1228   1.285       .  A
O1217     Cd1220   2.150       .  S
Zn1218     O1229   2.106       .  S
Zn1218     O1231   2.152       .  S
Zn1218     O1223   1.984       .  S
O1219      C1230   1.285       .  A
O1219     Cd1224   2.129       .  S
Cd1220     O1222   2.179       .  S
Cd1220     O1223   2.032       .  S
Cd1221     O1225   2.106       .  S
Cd1221     O1234   2.120       .  S
Cd1221     O1223   2.129       .  S
O1222      C1232   1.300       .  A
O1223     Cd1224   2.035       .  S
Cd1224     O1226   2.149       .  S
O1225      C1232   1.274       .  A
C1227      O1231   1.301       .  A
C1227      C1828   1.525       .  S
C1228      C1373   1.524       .  S
C1233      O1234   1.274       .  A
O1235      C1251   1.283       .  A
O1235     Zn1241   2.097       .  S
C1236      O1252   1.281       .  A
C1236      O1249   1.285       .  A
O1237      C1250   1.279   1_455  A
O1237     Cd1244   2.124       .  S
O1238      C1256   1.303       .  A
O1238     Cd1247   2.185       .  S
O1239      C1253   1.283       .  A
O1239     Cd1243   2.150       .  S
O1240      C1251   1.285       .  A
O1240     Cd1243   2.146   1_645  S
Zn1241     O1252   2.093   1_545  S
Zn1241     O1254   2.109       .  S
Zn1241     O1246   1.980   1_645  S
O1242      C1253   1.286       .  A
O1242     Cd1247   2.149       .  S
Cd1243     O1245   2.178   1_565  S
Cd1243     O1246   2.040       .  S
Cd1244     O1248   2.145       .  S
Cd1244     O1257   2.131       .  S
Cd1244     O1246   2.141   1_545  S
O1245      C1255   1.301       .  A
O1246     Cd1247   2.026       .  S
Cd1247     O1249   2.165   1_455  S
O1248      C1255   1.278       .  A
C1250      O1254   1.292       .  A
C1250      C1440   1.529       .  S
C1251      C1931   1.514       .  S
C1255      C2040   1.542       .  S
C1256      O1257   1.277   1_565  A
C1256      C1669   1.536       .  S
C1258      C2748   1.469       .  S
C1258      N1259   1.354   1_545  A
C1258      N1263   1.355       .  A
N1259      C1260   1.360       .  A
C1260      C2757   1.474       .  S
C1260      N1261   1.354   1_565  A
N1261      C1262   1.357       .  A
C1262      C2736   1.458       .  S
C1262      N1263   1.350       .  A
C1264      C2721   1.462       .  S
C1264      N1265   1.358       .  A
C1264      N1269   1.355       .  A
N1265      C1266   1.355       .  A
C1266      C2709   1.467       .  S
C1266      N1267   1.350       .  A
N1267      C1268   1.350       .  A
C1268      C2700   1.478       .  S
C1268      N1269   1.352       .  A
C1270      C2685   1.463       .  S
C1270      N1271   1.355       .  A
C1270      N1275   1.352       .  A
N1271      C1272   1.362       .  A
C1272      C2673   1.477       .  S
C1272      N1273   1.357       .  A
N1273      C1274   1.357       .  A
C1274      C2661   1.461       .  S
C1274      N1275   1.346       .  A
N1276      C1281   1.341       .  A
N1276      C1280   1.352       .  A
N1276      H1308   1.044       .  S
N1277      C1284   1.348       .  A
N1277      C1285   1.337       .  A
N1278      C1283   1.373       .  A
N1278      C1282   1.371       .  A
N1278      H1309   1.041       .  S
N1279      C1286   1.350       .  A
N1279      C1287   1.354       .  A
C1280      C1288   1.387       .  A
C1280      C1296   1.408       .  A
C1281      C1297   1.400       .  A
C1281      C1289   1.387       .  A
C1282      C1290   1.391       .  A
C1282      C1299   1.463       .  A
C1283      C1298   1.464       .  A
C1283      C1291   1.390       .  A
C1284      C1296   1.397       .  A
C1284      C1292   1.380       .  A
C1285      C1299   1.404       .  A
C1285      C1293   1.394       .  A
C1286      C1294   1.380       .  A
C1286      C1297   1.401       .  A
C1287      C1295   1.393       .  A
C1287      C1298   1.422       .  A
C1288      C1289   1.373       .  A
C1288      H1300   1.081       .  S
C1289      H1301   1.082       .  S
C1290      C1291   1.411       .  A
C1290      H1302   1.082       .  S
C1291      H1303   1.082       .  S
C1292      C1293   1.372       .  A
C1292      H1304   1.082       .  S
C1293      H1305   1.083       .  S
C1294      C1295   1.367       .  A
C1294      H1306   1.083       .  S
C1295      H1307   1.081       .  S
C1296      C2676   1.492       .  S
C1297      C2697   1.468       .  S
N1310      C1315   1.344       .  A
N1310      C1314   1.342       .  A
N1310      H1342   1.038       .  S
N1311      C1318   1.352       .  A
N1311      C1319   1.350       .  A
N1312      C1317   1.370       .  A
N1312      C1316   1.371       .  A
N1312      H1343   1.038       .  S
N1313      C1320   1.353       .  A
N1313      C1321   1.348       .  A
C1314      C1322   1.385       .  A
C1314      C1330   1.397       .  A
C1315      C1331   1.400       .  A
C1315      C1323   1.386       .  A
C1316      C1324   1.389       .  A
C1316      C1333   1.458       .  A
C1317      C1332   1.457       .  A
C1317      C1325   1.389       .  A
C1318      C1330   1.409       .  A
C1318      C1326   1.384       .  A
C1319      C1333   1.413       .  A
C1319      C1327   1.393       .  A
C1320      C1328   1.386       .  A
C1320      C1331   1.412       .  A
C1321      C1329   1.386       .  A
C1321      C1332   1.407       .  A
C1322      C1323   1.380       .  A
C1322      H1334   1.082       .  S
C1323      H1335   1.082       .  S
C1324      C1325   1.406       .  A
C1324      H1336   1.082       .  S
C1325      H1337   1.082       .  S
C1326      C1327   1.354       .  A
C1326      H1338   1.082       .  S
C1327      H1339   1.080       .  S
C1328      C1329   1.361       .  A
C1328      H1340   1.081       .  S
C1329      H1341   1.080       .  S
C1330      C2664   1.470       .  S
C1331      C2733   1.479       .  S
C1344      C2637   1.467       .  S
C1344      N1345   1.363       .  A
C1344      N1349   1.361       .  A
N1345      C1346   1.360       .  A
C1346      C2652   1.482       .  S
C1346      N1347   1.348       .  A
N1347      C1348   1.347       .  A
C1348      C2625   1.478       .  S
C1348      N1349   1.357       .  A
N1350      C1355   1.348       .  A
N1350      C1354   1.343       .  A
N1350      H1382   1.041       .  S
N1351      C1358   1.352       .  A
N1351      C1359   1.349       .  A
N1352      C1357   1.372       .  A
N1352      C1356   1.370       .  A
N1352      H1383   1.040       .  S
N1353      C1360   1.352       .  A
N1353      C1361   1.349       .  A
C1354      C1362   1.389       .  A
C1354      C1370   1.406       .  A
C1355      C1371   1.404       .  A
C1355      C1363   1.384       .  A
C1356      C1364   1.391       .  A
C1356      C1373   1.461       .  A
C1357      C1372   1.459       .  A
C1357      C1365   1.390       .  A
C1358      C1370   1.410       .  A
C1358      C1366   1.384       .  A
C1359      C1373   1.415       .  A
C1359      C1367   1.392       .  A
C1360      C1368   1.383       .  A
C1360      C1371   1.403       .  A
C1361      C1369   1.391       .  A
C1361      C1372   1.412       .  A
C1362      C1363   1.378       .  A
C1362      H1374   1.081       .  S
C1363      H1375   1.082       .  S
C1364      C1365   1.408       .  A
C1364      H1376   1.082       .  S
C1365      H1377   1.081       .  S
C1366      C1367   1.364       .  A
C1366      H1378   1.082       .  S
C1367      H1379   1.080       .  S
C1368      C1369   1.367       .  A
C1368      H1380   1.082       .  S
C1369      H1381   1.083       .  S
C1370      C2628   1.477       .  S
C1371      C2688   1.489       .  S
N1384      C1389   1.348       .  A
N1384      C1388   1.341       .  A
N1384      H1416   1.043       .  S
N1385      C1392   1.354       .  A
N1385      C1393   1.356       .  A
N1386      C1391   1.372       .  A
N1386      C1390   1.367       .  A
N1386      H1417   1.041       .  S
N1387      C1394   1.344       .  A
N1387      C1395   1.334       .  A
C1388      C1396   1.388       .  A
C1388      C1404   1.399       .  A
C1389      C1405   1.406       .  A
C1389      C1397   1.387       .  A
C1390      C1398   1.390       .  A
C1390      C1407   1.457       .  A
C1391      C1406   1.460       .  A
C1391      C1399   1.391       .  A
C1392      C1404   1.413       .  A
C1392      C1400   1.383       .  A
C1393      C1407   1.420       .  A
C1393      C1401   1.389       .  A
C1394      C1402   1.379       .  A
C1394      C1405   1.396       .  A
C1395      C1403   1.390       .  A
C1395      C1406   1.398       .  A
C1396      C1397   1.378       .  A
C1396      H1408   1.082       .  S
C1397      H1409   1.082       .  S
C1398      C1399   1.411       .  A
C1398      H1410   1.082       .  S
C1399      H1411   1.082       .  S
C1400      C1401   1.373       .  A
C1400      H1412   1.082       .  S
C1401      H1413   1.082       .  S
C1402      C1403   1.378       .  A
C1402      H1414   1.080       .  S
C1403      H1415   1.082       .  S
C1404      C2712   1.477       .  S
C1405      C2760   1.481       .  S
N1418      C1423   1.339       .  A
N1418      C1422   1.351       .  A
N1418      H1450   1.042       .  S
N1419      C1426   1.337       .  A
N1419      C1427   1.331       .  A
N1420      C1425   1.360       .  A
N1420      C1424   1.368       .  A
N1420      H1451   1.043       .  S
N1421      C1428   1.354       .  A
N1421      C1429   1.354       .  A
C1422      C1430   1.387       .  A
C1422      C1438   1.409       .  A
C1423      C1439   1.400       .  A
C1423      C1431   1.388       .  A
C1424      C1432   1.388       .  A
C1424      C1441   1.447       .  A
C1425      C1440   1.449       .  A
C1425      C1433   1.392       .  A
C1426      C1438   1.382       .  A
C1426      C1434   1.377       .  A
C1427      C1441   1.390       .  A
C1427      C1435   1.390       .  A
C1428      C1436   1.381       .  A
C1428      C1439   1.406       .  A
C1429      C1437   1.394       .  A
C1429      C1440   1.425       .  A
C1430      C1431   1.378       .  A
C1430      H1442   1.082       .  S
C1431      H1443   1.082       .  S
C1432      C1433   1.407       .  A
C1432      H1444   1.082   1_655  S
C1433      H1445   1.082   1_655  S
C1434      C1435   1.375       .  A
C1434      H1446   1.080       .  S
C1435      H1447   1.080       .  S
C1436      C1437   1.369       .  A
C1436      H1448   1.083       .  S
C1437      H1449   1.081       .  S
C1438      C2649   1.481       .  S
C1439      C2724   1.471       .  S
C1441      C1963   1.519       .  S
N1452      C1457   1.347       .  A
N1452      C1456   1.346       .  A
N1452      H1484   1.044       .  S
N1453      C1460   1.350       .  A
N1453      C1461   1.347       .  A
N1454      C1459   1.369       .  A
N1454      C1458   1.372       .  A
N1454      H1485   1.041       .  S
N1455      C1462   1.351       .  A
N1455      C1463   1.348       .  A
C1456      C1464   1.388       .  A
C1456      C1472   1.406       .  A
C1457      C1473   1.403       .  A
C1457      C1465   1.385       .  A
C1458      C1466   1.390       .  A
C1458      C1475   1.461       .  A
C1459      C1474   1.460       .  A
C1459      C1467   1.391       .  A
C1460      C1472   1.394       .  A
C1460      C1468   1.376   1_545  A
C1461      C1475   1.422       .  A
C1461      C1469   1.398       .  A
C1462      C1470   1.380       .  A
C1462      C1473   1.400       .  A
C1463      C1471   1.392       .  A
C1463      C1474   1.416       .  A
C1464      C1465   1.382       .  A
C1464      H1476   1.082       .  S
C1465      H1477   1.082       .  S
C1466      C1467   1.410       .  A
C1466      H1478   1.082   1_556  S
C1467      H1479   1.082       .  S
C1468      C1469   1.368   1_565  A
C1468      H1480   1.083       .  S
C1469      H1481   1.078   1_545  S
C1470      C1471   1.367       .  A
C1470      H1482   1.083       .  S
C1471      H1483   1.081       .  S
C1472      C2745   1.480       .  S
C1473      C2640   1.486       .  S
C1486      C2601   1.471   1_455  S
C1486      N1487   1.360       .  A
C1486      N1491   1.353       .  A
N1487      C1488   1.359       .  A
C1488      C2589   1.487       .  S
C1488      N1489   1.350       .  A
N1489      C1490   1.350       .  A
C1490      C2613   1.447       .  S
C1490      N1491   1.349       .  A
N1492      C1497   1.345       .  A
N1492      C1496   1.353       .  A
N1492      H1524   1.043       .  S
N1493      C1500   1.348       .  A
N1493      C1501   1.340       .  A
N1494      C1499   1.366       .  A
N1494      C1498   1.370       .  A
N1494      H1525   1.041       .  S
N1495      C1502   1.351       .  A
N1495      C1503   1.355       .  A
C1496      C1504   1.387       .  A
C1496      C1512   1.412       .  A
C1497      C1513   1.403       .  A
C1497      C1505   1.387       .  A
C1498      C1506   1.389       .  A
C1498      C1515   1.452       .  A
C1499      C1514   1.456       .  A
C1499      C1507   1.391       .  A
C1500      C1512   1.402       .  A
C1500      C1508   1.382       .  A
C1501      C1515   1.405       .  A
C1501      C1509   1.391       .  A
C1502      C1510   1.379       .  A
C1502      C1513   1.403       .  A
C1503      C1511   1.392       .  A
C1503      C1514   1.425       .  A
C1504      C1505   1.377       .  A
C1504      H1516   1.082       .  S
C1505      H1517   1.082       .  S
C1506      C1507   1.406       .  A
C1506      H1518   1.082       .  S
C1507      H1519   1.082       .  S
C1508      C1509   1.370       .  A
C1508      H1520   1.082       .  S
C1509      H1521   1.083       .  S
C1510      C1511   1.368       .  A
C1510      H1522   1.083       .  S
C1511      H1523   1.077       .  S
C1512      C2577   1.494       .  S
C1513      C2592   1.475       .  S
C1526      C2541   1.484       .  S
C1526      N1527   1.350       .  A
C1526      N1531   1.363       .  A
N1527      C1528   1.348       .  A
C1528      C2553   1.468       .  S
C1528      N1529   1.349       .  A
N1529      C1530   1.359       .  A
C1530      C2565   1.483       .  S
C1530      N1531   1.361       .  A
C1532      C2529   1.468       .  S
C1532      N1533   1.349       .  A
C1532      N1537   1.349       .  A
N1533      C1534   1.357       .  A
C1534      C2580   1.477       .  S
C1534      N1535   1.362       .  A
N1535      C1536   1.367       .  A
C1536      C2520   1.487       .  S
C1536      N1537   1.350       .  A
N1538      C1543   1.343       .  A
N1538      C1542   1.350       .  A
N1538      H1570   1.044       .  S
N1539      C1546   1.343       .  A
N1539      C1547   1.335       .  A
N1540      C1545   1.365       .  A
N1540      C1544   1.370       .  A
N1540      H1571   1.041       .  S
N1541      C1548   1.350       .  A
N1541      C1549   1.354       .  A
C1542      C1550   1.387       .  A
C1542      C1558   1.408       .  A
C1543      C1559   1.399       .  A
C1543      C1551   1.387       .  A
C1544      C1552   1.390       .  A
C1544      C1561   1.455       .  A
C1545      C1560   1.456       .  A
C1545      C1553   1.391       .  A
C1546      C1558   1.391       .  A
C1546      C1554   1.381       .  A
C1547      C1561   1.398       .  A
C1547      C1555   1.389       .  A
C1548      C1556   1.379       .  A
C1548      C1559   1.400       .  A
C1549      C1557   1.393       .  A
C1549      C1560   1.423       .  A
C1550      C1551   1.379       .  A
C1550      H1562   1.082       .  S
C1551      H1563   1.082       .  S
C1552      C1553   1.410       .  A
C1552      H1564   1.082       .  S
C1553      H1565   1.082       .  S
C1554      C1555   1.375       .  A
C1554      H1566   1.081       .  S
C1555      H1567   1.082       .  S
C1556      C1557   1.369       .  A
C1556      H1568   1.082       .  S
C1557      H1569   1.081       .  S
C1558      C2517   1.481       .  S
C1559      C2544   1.469       .  S
C1572      C2505   1.465       .  S
C1572      N1573   1.352   1_455  A
C1572      N1577   1.361       .  A
N1573      C1574   1.353       .  A
C1574      C2481   1.462       .  S
C1574      N1575   1.349   1_655  A
N1575      C1576   1.356       .  A
C1576      C2493   1.469       .  S
C1576      N1577   1.358       .  A
N1578      C1583   1.343       .  A
N1578      C1582   1.347       .  A
N1578      H1610   1.043       .  S
N1579      C1586   1.344       .  A
N1579      C1587   1.340       .  A
N1580      C1585   1.366       .  A
N1580      C1584   1.371       .  A
N1580      H1611   1.042       .  S
N1581      C1588   1.354       .  A
N1581      C1589   1.357       .  A
C1582      C1590   1.387       .  A
C1582      C1598   1.407       .  A
C1583      C1599   1.402       .  A
C1583      C1591   1.387       .  A
C1584      C1592   1.388       .  A
C1584      C1601   1.455       .  A
C1585      C1600   1.457       .  A
C1585      C1593   1.391       .  A
C1586      C1598   1.396       .  A
C1586      C1594   1.381       .  A
C1587      C1601   1.404       .  A
C1587      C1595   1.392       .  A
C1588      C1596   1.382       .  A
C1588      C1599   1.412       .  A
C1589      C1597   1.392       .  A
C1589      C1600   1.427       .  A
C1590      C1591   1.384       .  A
C1590      H1602   1.082       .  S
C1591      H1603   1.082       .  S
C1592      C1593   1.407       .  A
C1592      H1604   1.082       .  S
C1593      H1605   1.082       .  S
C1594      C1595   1.371       .  A
C1594      H1606   1.083       .  S
C1595      H1607   1.080       .  S
C1596      C1597   1.369       .  A
C1596      H1608   1.083       .  S
C1597      H1609   1.080       .  S
C1598      C2532   1.478       .  S
C1599      C2496   1.484       .  S
C1600      C1962   1.544       .  S
N1612      C1617   1.345       .  A
N1612      C1616   1.342       .  A
N1612      H1644   1.037       .  S
N1613      C1620   1.353       .  A
N1613      C1621   1.349       .  A
N1614      C1619   1.371       .  A
N1614      C1618   1.376       .  A
N1614      H1645   1.039       .  S
N1615      C1622   1.354       .  A
N1615      C1623   1.346       .  A
C1616      C1624   1.390       .  A
C1616      C1632   1.406       .  A
C1617      C1633   1.396       .  A
C1617      C1625   1.382       .  A
C1618      C1626   1.390       .  A
C1618      C1635   1.465       .  A
C1619      C1634   1.460       .  A
C1619      C1627   1.389       .  A
C1620      C1632   1.412       .  A
C1620      C1628   1.383       .  A
C1621      C1635   1.415       .  A
C1621      C1629   1.390       .  A
C1622      C1630   1.382       .  A
C1622      C1633   1.403       .  A
C1623      C1631   1.393       .  A
C1623      C1634   1.410       .  A
C1624      C1625   1.375       .  A
C1624      H1636   1.080       .  S
C1625      H1637   1.083       .  S
C1626      C1627   1.407       .  A
C1626      H1638   1.082       .  S
C1627      H1639   1.082       .  S
C1628      C1629   1.375       .  A
C1628      H1640   1.082       .  S
C1629      H1641   1.081       .  S
C1630      C1631   1.355       .  A
C1630      H1642   1.082       .  S
C1631      H1643   1.081       .  S
C1632      C2604   1.478       .  S
C1633      C2484   1.476       .  S
N1646      C1651   1.340       .  A
N1646      C1650   1.345       .  A
N1646      H1678   1.036       .  S
N1647      C1654   1.337       .  A
N1647      C1655   1.332       .  A
N1648      C1653   1.363       .  A
N1648      C1652   1.374       .  A
N1648      H1679   1.041       .  S
N1649      C1656   1.358       .  A
N1649      C1657   1.352       .  A
C1650      C1658   1.385       .  A
C1650      C1666   1.408       .  A
C1651      C1667   1.400       .  A
C1651      C1659   1.387       .  A
C1652      C1660   1.389   1_565  A
C1652      C1669   1.458       .  A
C1653      C1668   1.454       .  A
C1653      C1661   1.391   1_565  A
C1654      C1666   1.395       .  A
C1654      C1662   1.388       .  A
C1655      C1669   1.378       .  A
C1655      C1663   1.383       .  A
C1656      C1664   1.380       .  A
C1656      C1667   1.412       .  A
C1657      C1665   1.394       .  A
C1657      C1668   1.424       .  A
C1658      C1659   1.379       .  A
C1658      H1670   1.082       .  S
C1659      H1671   1.082       .  S
C1660      C1661   1.410       .  A
C1660      H1672   1.082       .  S
C1661      H1673   1.082       .  S
C1662      C1663   1.376       .  A
C1662      H1674   1.082       .  S
C1663      H1675   1.082       .  S
C1664      C1665   1.359       .  A
C1664      H1676   1.083       .  S
C1665      H1677   1.080       .  S
C1666      C2616   1.471       .  S
C1667      C2568   1.484       .  S
N1680      C1685   1.350       .  A
N1680      C1684   1.344       .  A
N1680      H1712   1.042       .  S
N1681      C1688   1.355       .  A
N1681      C1689   1.352       .  A
N1682      C1687   1.372       .  A
N1682      C1686   1.367       .  A
N1682      H1713   1.039       .  S
N1683      C1690   1.349       .  A
N1683      C1691   1.343       .  A
C1684      C1692   1.387       .  A
C1684      C1700   1.400       .  A
C1685      C1701   1.404       .  A
C1685      C1693   1.387       .  A
C1686      C1694   1.390       .  A
C1686      C1703   1.456       .  A
C1687      C1702   1.457       .  A
C1687      C1695   1.389       .  A
C1688      C1700   1.403       .  A
C1688      C1696   1.379       .  A
C1689      C1703   1.422       .  A
C1689      C1697   1.394       .  A
C1690      C1698   1.379       .  A
C1690      C1701   1.393       .  A
C1691      C1699   1.390       .  A
C1691      C1702   1.410       .  A
C1692      C1693   1.372       .  A
C1692      H1704   1.082       .  S
C1693      H1705   1.082       .  S
C1694      C1695   1.406       .  A
C1694      H1706   1.082   1_556  S
C1695      H1707   1.082   1_556  S
C1696      C1697   1.358       .  A
C1696      H1708   1.083       .  S
C1697      H1709   1.082       .  S
C1698      C1699   1.370       .  A
C1698      H1710   1.083   1_455  S
C1699      H1711   1.080   1_455  S
C1700      C2556   1.477       .  S
C1701      C2508   1.480       .  S
C1714      C2460   1.474       .  S
C1714      N1715   1.353       .  A
C1714      N1719   1.345       .  A
N1715      C1716   1.356       .  A
C1716      C2469   1.476       .  S
C1716      N1717   1.356       .  A
N1717      C1718   1.355       .  A
C1718      C2445   1.453       .  S
C1718      N1719   1.346       .  A
N1720      C1725   1.341       .  A
N1720      C1724   1.353       .  A
N1720      H1752   1.042       .  S
N1721      C1728   1.342       .  A
N1721      C1729   1.337       .  A
N1722      C1727   1.364       .  A
N1722      C1726   1.370       .  A
N1722      H1753   1.040       .  S
N1723      C1730   1.354       .  A
N1723      C1731   1.355       .  A
C1724      C1732   1.386       .  A
C1724      C1740   1.406       .  A
C1725      C1741   1.400       .  A
C1725      C1733   1.388       .  A
C1726      C1734   1.389       .  A
C1726      C1743   1.453       .  A
C1727      C1742   1.451       .  A
C1727      C1735   1.390       .  A
C1728      C1740   1.388       .  A
C1728      C1736   1.376       .  A
C1729      C1743   1.404       .  A
C1729      C1737   1.394       .  A
C1730      C1738   1.383       .  A
C1730      C1741   1.407       .  A
C1731      C1739   1.389       .  A
C1731      C1742   1.420       .  A
C1732      C1733   1.370       .  A
C1732      H1744   1.081       .  S
C1733      H1745   1.082       .  S
C1734      C1735   1.407       .  A
C1734      H1746   1.082       .  S
C1735      H1747   1.082       .  S
C1736      C1737   1.373       .  A
C1736      H1748   1.080       .  S
C1737      H1749   1.082       .  S
C1738      C1739   1.361       .  A
C1738      H1750   1.083       .  S
C1739      H1751   1.082       .  S
C1740      C2433   1.484       .  S
C1741      C2457   1.464       .  S
C1754      C2436   1.475       .  S
C1754      N1755   1.354       .  A
C1754      N1759   1.362       .  A
N1755      C1756   1.357       .  A
C1756      C2421   1.484       .  S
C1756      N1757   1.351       .  A
N1757      C1758   1.354       .  A
C1758      C2409   1.470       .  S
C1758      N1759   1.357       .  A
C1760      C2373   1.461       .  S
C1760      N1761   1.353       .  A
C1760      N1765   1.355       .  A
N1761      C1762   1.348       .  A
C1762      C2388   1.453       .  S
C1762      N1763   1.353       .  A
N1763      C1764   1.353       .  A
C1764      C2397   1.481   1_655  S
C1764      N1765   1.354       .  A
C1766      C2361   1.485       .  S
C1766      N1767   1.355       .  A
C1766      N1771   1.366       .  A
N1767      C1768   1.346   1_455  A
C1768      C2349   1.460       .  S
C1768      N1769   1.345       .  A
N1769      C1770   1.353       .  A
C1770      C2337   1.473       .  S
C1770      N1771   1.361   1_655  A
N1772      C1777   1.344       .  A
N1772      C1776   1.353       .  A
N1772      H1804   1.041       .  S
N1773      C1780   1.338       .  A
N1773      C1781   1.334       .  A
N1774      C1779   1.360       .  A
N1774      C1778   1.372       .  A
N1774      H1805   1.037       .  S
N1775      C1782   1.358       .  A
N1775      C1783   1.358       .  A
C1776      C1784   1.383       .  A
C1776      C1792   1.406       .  A
C1777      C1793   1.406       .  A
C1777      C1785   1.391       .  A
C1778      C1786   1.387       .  A
C1778      C1795   1.454       .  A
C1779      C1794   1.454       .  A
C1779      C1787   1.391       .  A
C1780      C1792   1.378       .  A
C1780      C1788   1.381       .  A
C1781      C1795   1.389       .  A
C1781      C1789   1.388       .  A
C1782      C1790   1.383       .  A
C1782      C1793   1.415       .  A
C1783      C1791   1.394       .  A
C1783      C1794   1.431       .  A
C1784      C1785   1.372       .  A
C1784      H1796   1.083       .  S
C1785      H1797   1.082       .  S
C1786      C1787   1.408       .  A
C1786      H1798   1.082       .  S
C1787      H1799   1.080       .  S
C1788      C1789   1.372       .  A
C1788      H1800   1.080       .  S
C1789      H1801   1.083       .  S
C1790      C1791   1.363       .  A
C1790      H1802   1.082       .  S
C1791      H1803   1.082       .  S
C1792      C2364   1.485       .  S
C1793      C2400   1.473       .  S
N1806      C1811   1.354       .  A
N1806      C1810   1.347       .  A
N1806      H1838   1.042       .  S
N1807      C1814   1.355       .  A
N1807      C1815   1.357       .  A
N1808      C1813   1.369       .  A
N1808      C1812   1.364       .  A
N1808      H1839   1.040       .  S
N1809      C1816   1.345       .  A
N1809      C1817   1.338       .  A
C1810      C1818   1.387       .  A
C1810      C1826   1.411       .  A
C1811      C1827   1.416       .  A
C1811      C1819   1.387       .  A
C1812      C1820   1.388       .  A
C1812      C1829   1.449       .  A
C1813      C1828   1.454       .  A
C1813      C1821   1.390       .  A
C1814      C1826   1.418       .  A
C1814      C1822   1.386       .  A
C1815      C1829   1.420       .  A
C1815      C1823   1.385       .  A
C1816      C1824   1.387       .  A
C1816      C1827   1.403       .  A
C1817      C1825   1.387       .  A
C1817      C1828   1.398       .  A
C1818      C1819   1.381       .  A
C1818      H1830   1.082       .  S
C1819      H1831   1.082       .  S
C1820      C1821   1.406       .  A
C1820      H1832   1.082       .  S
C1821      H1833   1.082       .  S
C1822      C1823   1.363       .  A
C1822      H1834   1.081       .  S
C1823      H1835   1.080       .  S
C1824      C1825   1.374       .  A
C1824      H1836   1.083       .  S
C1825      H1837   1.083       .  S
C1826      C2340   1.491       .  S
C1827      C2412   1.495       .  S
C1829      C1960   1.528       .  S
N1840      C1845   1.338       .  A
N1840      C1844   1.345       .  A
N1840      H1872   1.041       .  S
N1841      C1848   1.335       .  A
N1841      C1849   1.330       .  A
N1842      C1847   1.365       .  A
N1842      C1846   1.375       .  A
N1842      H1873   1.041       .  S
N1843      C1850   1.356       .  A
N1843      C1851   1.352       .  A
C1844      C1852   1.386       .  A
C1844      C1860   1.402       .  A
C1845      C1861   1.395       .  A
C1845      C1853   1.387       .  A
C1846      C1854   1.389   1_554  A
C1846      C1863   1.460       .  A
C1847      C1862   1.458       .  A
C1847      C1855   1.391   1_554  A
C1848      C1860   1.384       .  A
C1848      C1856   1.379       .  A
C1849      C1863   1.384       .  A
C1849      C1857   1.389       .  A
C1850      C1858   1.381       .  A
C1850      C1861   1.408       .  A
C1851      C1859   1.391       .  A
C1851      C1862   1.419       .  A
C1852      C1853   1.380       .  A
C1852      H1864   1.082       .  S
C1853      H1865   1.082       .  S
C1854      C1855   1.411       .  A
C1854      H1866   1.082       .  S
C1855      H1867   1.082       .  S
C1856      C1857   1.376       .  A
C1856      H1868   1.081       .  S
C1857      H1869   1.082       .  S
C1858      C1859   1.364       .  A
C1858      H1870   1.082       .  S
C1859      H1871   1.081       .  S
C1860      C2385   1.457       .  S
C1861      C2472   1.474       .  S
N1874      C1879   1.338       .  A
N1874      C1878   1.348       .  A
N1874      H1906   1.039       .  S
N1875      C1882   1.345       .  A
N1875      C1883   1.338       .  A
N1876      C1881   1.368       .  A
N1876      C1880   1.373       .  A
N1876      H1907   1.040       .  S
N1877      C1884   1.354       .  A
N1877      C1885   1.354       .  A
C1878      C1886   1.385       .  A
C1878      C1894   1.401       .  A
C1879      C1895   1.399       .  A
C1879      C1887   1.389       .  A
C1880      C1888   1.390       .  A
C1880      C1897   1.462       .  A
C1881      C1896   1.461       .  A
C1881      C1889   1.391       .  A
C1882      C1894   1.389       .  A
C1882      C1890   1.373       .  A
C1883      C1897   1.403       .  A
C1883      C1891   1.393       .  A
C1884      C1892   1.381       .  A
C1884      C1895   1.408       .  A
C1885      C1893   1.395       .  A
C1885      C1896   1.424       .  A
C1886      C1887   1.374       .  A
C1886      H1898   1.082       .  S
C1887      H1899   1.082       .  S
C1888      C1889   1.411       .  A
C1888      H1900   1.082       .  S
C1889      H1901   1.082       .  S
C1890      C1891   1.366       .  A
C1890      H1902   1.074       .  S
C1891      H1903   1.083       .  S
C1892      C1893   1.357       .  A
C1892      H1904   1.081       .  S
C1893      H1905   1.080       .  S
C1894      C2424   1.473       .  S
C1895      C2376   1.464       .  S
N1908      C1913   1.339       .  A
N1908      C1912   1.346       .  A
N1908      H1940   1.038       .  S
N1909      C1916   1.349       .  A
N1909      C1917   1.342       .  A
N1910      C1915   1.372       .  A
N1910      C1914   1.369       .  A
N1910      H1941   1.041       .  S
N1911      C1918   1.349       .  A
N1911      C1919   1.349       .  A
C1912      C1920   1.388       .  A
C1912      C1928   1.404       .  A
C1913      C1929   1.396       .  A
C1913      C1921   1.385       .  A
C1914      C1922   1.390       .  A
C1914      C1931   1.457       .  A
C1915      C1930   1.463       .  A
C1915      C1923   1.392       .  A
C1916      C1928   1.407       .  A
C1916      C1924   1.385       .  A
C1917      C1931   1.401       .  A
C1917      C1925   1.391       .  A
C1918      C1926   1.385       .  A
C1918      C1929   1.403       .  A
C1919      C1927   1.383       .  A
C1919      C1930   1.404       .  A
C1920      C1921   1.377       .  A
C1920      H1932   1.080       .  S
C1921      H1933   1.082       .  S
C1922      C1923   1.410       .  A
C1922      H1934   1.082   1_545  S
C1923      H1935   1.081   1_545  S
C1924      C1925   1.366       .  A
C1924      H1936   1.081       .  S
C1925      H1937   1.081       .  S
C1926      C1927   1.364       .  A
C1926      H1938   1.082       .  S
C1927      H1939   1.077       .  S
C1928      C2352   1.476       .  S
C1929      C2448   1.462       .  S
O1942      C1958   1.284       .  A
O1942     Zn1948   2.101       .  S
C1943      O1959   1.284       .  A
C1943      O1956   1.285       .  A
O1944      C1957   1.274       .  A
O1944     Cd1951   2.109       .  S
O1945      C1963   1.301       .  A
O1945     Cd1954   2.175       .  S
O1946      C1960   1.285       .  A
O1946     Cd1950   2.152   1_655  S
O1947      C1958   1.282       .  A
O1947     Cd1950   2.140       .  S
Zn1948     O1959   2.093   1_455  S
Zn1948     O1961   2.171       .  S
Zn1948     O1953   1.980       .  S
O1949      C1960   1.288       .  A
O1949     Cd1954   2.169       .  S
Cd1950     O1952   2.170       .  S
Cd1950     O1953   2.043       .  S
Cd1951     O1955   2.137       .  S
Cd1951     O1964   2.102       .  S
Cd1951     O1953   2.124       .  S
O1952      C1962   1.294       .  A
O1953     Cd1954   2.039   1_455  S
Cd1954     O1956   2.161       .  S
O1955      C1962   1.279       .  A
C1957      O1961   1.301       .  A
C1957      C2114   1.526       .  S
C1963      O1964   1.273   1_655  A
C1965      C2313   1.488       .  S
C1965      N1966   1.354       .  A
C1965      N1970   1.366   1_455  A
N1966      C1967   1.349   1_455  A
C1967      C2301   1.456   1_556  S
C1967      N1968   1.343       .  A
N1968      C1969   1.352       .  A
C1969      C2325   1.464       .  S
C1969      N1970   1.361       .  A
N1971      C1976   1.340       .  A
N1971      C1975   1.346       .  A
N1971      H2003   1.045       .  S
N1972      C1979   1.343       .  A
N1972      C1980   1.335       .  A
N1973      C1978   1.353       .  A
N1973      C1977   1.354       .  A
N1973      H2004   1.044       .  S
N1974      C1981   1.372       .  A
N1974      C1982   1.370       .  A
C1975      C1983   1.387       .  A
C1975      C1991   1.399       .  A
C1976      C1992   1.396       .  A
C1976      C1984   1.389       .  A
C1977      C1985   1.386       .  A
C1977      C1994   1.411       .  A
C1978      C1993   1.416       .  A
C1978      C1986   1.389       .  A
C1979      C1991   1.396       .  A
C1979      C1987   1.383       .  A
C1980      C1994   1.397       .  A
C1980      C1988   1.389       .  A
C1981      C1989   1.388       .  A
C1981      C1992   1.459       .  A
C1982      C1990   1.392       .  A
C1982      C1993   1.463       .  A
C1983      C1984   1.372       .  A
C1983      H1995   1.083       .  S
C1984      H1996   1.082       .  S
C1985      C1986   1.372       .  A
C1985      H1997   1.082       .  S
C1986      H1998   1.082       .  S
C1987      C1988   1.377       .  A
C1987      H1999   1.082       .  S
C1988      H2000   1.082       .  S
C1989      C1990   1.409       .  A
C1989      H2001   1.082       .  S
C1990      H2002   1.081       .  S
C1991      C2304   1.469       .  S
C1994      C2292   1.471       .  S
C2005      C2265   1.478       .  S
C2005      N2006   1.356   1_655  A
C2005      N2010   1.349   1_545  A
N2006      C2007   1.362   1_545  A
C2007      C2253   1.466       .  S
C2007      N2008   1.357       .  A
N2008      C2009   1.356   1_455  A
C2009      C2280   1.482       .  S
C2009      N2010   1.350       .  A
C2011      C2289   1.464       .  S
C2011      N2012   1.352       .  A
C2011      N2016   1.352       .  A
N2012      C2013   1.352       .  A
C2013      C2241   1.463       .  S
C2013      N2014   1.356       .  A
N2014      C2015   1.354       .  A
C2015      C2229   1.482       .  S
C2015      N2016   1.354       .  A
N2017      C2022   1.345       .  A
N2017      C2021   1.352       .  A
N2017      H2049   1.040       .  S
N2018      C2025   1.344       .  A
N2018      C2026   1.338       .  A
N2019      C2024   1.370       .  A
N2019      C2023   1.377       .  A
N2019      H2050   1.037       .  S
N2020      C2027   1.357       .  A
N2020      C2028   1.355       .  A
C2021      C2029   1.384       .  A
C2021      C2037   1.404       .  A
C2022      C2038   1.406       .  A
C2022      C2030   1.390       .  A
C2023      C2031   1.389       .  A
C2023      C2040   1.467       .  A
C2024      C2039   1.465       .  A
C2024      C2032   1.390       .  A
C2025      C2037   1.388       .  A
C2025      C2033   1.380       .  A
C2026      C2040   1.406       .  A
C2026      C2034   1.393       .  A
C2027      C2035   1.381       .  A
C2027      C2038   1.410       .  A
C2028      C2036   1.392       .  A
C2028      C2039   1.425       .  A
C2029      C2030   1.369       .  A
C2029      H2041   1.082       .  S
C2030      H2042   1.082       .  S
C2031      C2032   1.409       .  A
C2031      H2043   1.082       .  S
C2032      H2044   1.082       .  S
C2033      C2034   1.369       .  A
C2033      H2045   1.083   1_545  S
C2034      H2046   1.083   1_545  S
C2035      C2036   1.359       .  A
C2035      H2047   1.083       .  S
C2036      H2048   1.081       .  S
C2037      C2256   1.477       .  S
C2038      C2232   1.476       .  S
C2051      C2196   1.469       .  S
C2051      N2052   1.352       .  A
C2051      N2056   1.348       .  A
N2052      C2053   1.358       .  A
C2053      C2208   1.480   1_545  S
C2053      N2054   1.359       .  A
N2054      C2055   1.357       .  A
C2055      C2217   1.469   1_554  S
C2055      N2056   1.350       .  A
N2057      C2062   1.345       .  A
N2057      C2061   1.338       .  A
N2057      H2089   1.042       .  S
N2058      C2065   1.353       .  A
N2058      C2066   1.352       .  A
N2059      C2064   1.373       .  A
N2059      C2063   1.370       .  A
N2059      H2090   1.042       .  S
N2060      C2067   1.345       .  A
N2060      C2068   1.334       .  A
C2061      C2069   1.386       .  A
C2061      C2077   1.394       .  A
C2062      C2078   1.402       .  A
C2062      C2070   1.384       .  A
C2063      C2071   1.392       .  A
C2063      C2080   1.463       .  A
C2064      C2079   1.459       .  A
C2064      C2072   1.388       .  A
C2065      C2077   1.408       .  A
C2065      C2073   1.383       .  A
C2066      C2080   1.418       .  A
C2066      C2074   1.391       .  A
C2067      C2075   1.378       .  A
C2067      C2078   1.392       .  A
C2068      C2076   1.392       .  A
C2068      C2079   1.402       .  A
C2069      C2070   1.378       .  A
C2069      H2081   1.082       .  S
C2070      H2082   1.078       .  S
C2071      C2072   1.408       .  A
C2071      H2083   1.081       .  S
C2072      H2084   1.082       .  S
C2073      C2074   1.369       .  A
C2073      H2085   1.083       .  S
C2074      H2086   1.081       .  S
C2075      C2076   1.369       .  A
C2075      H2087   1.082       .  S
C2076      H2088   1.074       .  S
C2077      C2244   1.470       .  S
C2078      C2193   1.472       .  S
N2091      C2096   1.343       .  A
N2091      C2095   1.352       .  A
N2091      H2123   1.039       .  S
N2092      C2099   1.339       .  A
N2092      C2100   1.337       .  A
N2093      C2098   1.363       .  A
N2093      C2097   1.368       .  A
N2093      H2124   1.036       .  S
N2094      C2101   1.351       .  A
N2094      C2102   1.356       .  A
C2095      C2103   1.381       .  A
C2095      C2111   1.405       .  A
C2096      C2112   1.411       .  A
C2096      C2104   1.391       .  A
C2097      C2105   1.389       .  A
C2097      C2114   1.458       .  A
C2098      C2113   1.460       .  A
C2098      C2106   1.392       .  A
C2099      C2111   1.392       .  A
C2099      C2107   1.387       .  A
C2100      C2114   1.396       .  A
C2100      C2108   1.386       .  A
C2101      C2109   1.386       .  A
C2101      C2112   1.417       .  A
C2102      C2110   1.389       .  A
C2102      C2113   1.424       .  A
C2103      C2104   1.377       .  A
C2103      H2115   1.082       .  S
C2104      H2116   1.082       .  S
C2105      C2106   1.413       .  A
C2105      H2117   1.082       .  S
C2106      H2118   1.082       .  S
C2107      C2108   1.376       .  A
C2107      H2119   1.083       .  S
C2108      H2120   1.082       .  S
C2109      C2110   1.363       .  A
C2109      H2121   1.083       .  S
C2110      H2122   1.082       .  S
C2111      C2316   1.483       .  S
C2112      C2220   1.472       .  S
N2125      C2130   1.341       .  A
N2125      C2129   1.352       .  A
N2125      H2157   1.041       .  S
N2126      C2133   1.339       .  A
N2126      C2134   1.334       .  A
N2127      C2132   1.362       .  A
N2127      C2131   1.369       .  A
N2127      H2158   1.042       .  S
N2128      C2135   1.354       .  A
N2128      C2136   1.357       .  A
C2129      C2137   1.386       .  A
C2129      C2145   1.408       .  A
C2130      C2146   1.402       .  A
C2130      C2138   1.388       .  A
C2131      C2139   1.389       .  A
C2131      C2148   1.451       .  A
C2132      C2147   1.450       .  A
C2132      C2140   1.390       .  A
C2133      C2145   1.387       .  A
C2133      C2141   1.374       .  A
C2134      C2148   1.394       .  A
C2134      C2142   1.392       .  A
C2135      C2143   1.385       .  A
C2135      C2146   1.414       .  A
C2136      C2144   1.390       .  A
C2136      C2147   1.421       .  A
C2137      C2138   1.380       .  A
C2137      H2149   1.083       .  S
C2138      H2150   1.082       .  S
C2139      C2140   1.409       .  A
C2139      H2151   1.082       .  S
C2140      H2152   1.082       .  S
C2141      C2142   1.366       .  A
C2141      H2153   1.071   1_455  S
C2142      H2154   1.083       .  S
C2143      C2144   1.366       .  A
C2143      H2155   1.083       .  S
C2144      H2156   1.082       .  S
C2145      C2277   1.475       .  S
C2146      C2205   1.471       .  S
N2159      C2164   1.358       .  A
N2159      C2163   1.352       .  A
N2159      H2191   1.041       .  S
N2160      C2167   1.369       .  A
N2160      C2168   1.371       .  A
N2161      C2166   1.348       .  A
N2161      C2165   1.347       .  A
N2161      H2192   1.045       .  S
N2162      C2169   1.341       .  A
N2162      C2170   1.346       .  A
C2163      C2171   1.383       .  A
C2163      C2179   1.414       .  A
C2164      C2180   1.418       .  A
C2164      C2172   1.387       .  A
C2165      C2173   1.392       .  A
C2165      C2182   1.411       .  A
C2166      C2181   1.398       .  A
C2166      C2174   1.381       .  A
C2167      C2179   1.458       .  A
C2167      C2175   1.389       .  A
C2168      C2182   1.460       .  A
C2168      C2176   1.389       .  A
C2169      C2177   1.391       .  A
C2169      C2180   1.408       .  A
C2170      C2178   1.382       .  A
C2170      C2181   1.398       .  A
C2171      C2172   1.367       .  A
C2171      H2183   1.076       .  S
C2172      H2184   1.079       .  S
C2173      C2174   1.372       .  A
C2173      H2185   1.081       .  S
C2174      H2186   1.083       .  S
C2175      C2176   1.407       .  A
C2175      H2187   1.082       .  S
C2176      H2188   1.082       .  S
C2177      C2178   1.376       .  A
C2177      H2189   1.081       .  S
C2178      H2190   1.082       .  S
C2180      C2268   1.483       .  S
C2181      C2328   1.485       .  S
C2193      C2194   1.399       .  A
C2193      C2198   1.408       .  A
C2194      C2195   1.393       .  A
C2194      H2199   1.082       .  S
C2195      C2196   1.413       .  A
C2195      C2202   1.445   1_554  S
C2196      C2197   1.404       .  A
C2197      C2198   1.392       .  A
C2197      H2200   1.085       .  S
C2198      C2201   1.445       .  S
C2201      N2203   1.157       .  T
C2202      N2204   1.157       .  T
C2205      C2206   1.398       .  A
C2205      C2210   1.404       .  A
C2206      C2207   1.397       .  A
C2206      H2211   1.085       .  S
C2207      C2208   1.417       .  A
C2207      C2214   1.443   1_565  S
C2208      C2209   1.409       .  A
C2209      C2210   1.390       .  A
C2209      H2212   1.084       .  S
C2210      C2213   1.445       .  S
C2213      N2215   1.157       .  T
C2214      N2216   1.157       .  T
C2217      C2218   1.401       .  A
C2217      C2222   1.416       .  A
C2218      C2219   1.394       .  A
C2218      H2223   1.083       .  S
C2219      C2220   1.410       .  A
C2219      C2226   1.445       .  S
C2220      C2221   1.394       .  A
C2221      C2222   1.391       .  A
C2221      H2224   1.085       .  S
C2222      C2225   1.442   1_556  S
C2225      N2227   1.156       .  T
C2226      N2228   1.157       .  T
C2229      C2230   1.407       .  A
C2229      C2234   1.420       .  A
C2230      C2231   1.389       .  A
C2230      H2235   1.084       .  S
C2231      C2232   1.404       .  A
C2231      C2238   1.444       .  S
C2232      C2233   1.398       .  A
C2233      C2234   1.399       .  A
C2233      H2236   1.085       .  S
C2234      C2237   1.444       .  S
C2237      N2239   1.158       .  T
C2238      N2240   1.157       .  T
C2241      C2242   1.408       .  A
C2241      C2246   1.408       .  A
C2242      C2243   1.396       .  A
C2242      H2247   1.085       .  S
C2243      C2244   1.402       .  A
C2243      C2250   1.443       .  S
C2244      C2245   1.403       .  A
C2245      C2246   1.388       .  A
C2245      H2248   1.086       .  S
C2246      C2249   1.445       .  S
C2249      N2251   1.157       .  T
C2250      N2252   1.157       .  T
C2253      C2254   1.397   1_565  A
C2253      C2258   1.416       .  A
C2254      C2255   1.393       .  A
C2254      H2259   1.085       .  S
C2255      C2256   1.415       .  A
C2255      C2262   1.446       .  S
C2256      C2257   1.396   1_545  A
C2257      C2258   1.397       .  A
C2257      H2260   1.085       .  S
C2258      C2261   1.443       .  S
C2261      N2263   1.157       .  T
C2262      N2264   1.157       .  T
C2265      C2266   1.405       .  A
C2265      C2270   1.416       .  A
C2266      C2267   1.404       .  A
C2266      H2271   1.084       .  S
C2267      C2268   1.413       .  A
C2267      C2274   1.444       .  S
C2268      C2269   1.397       .  A
C2269      C2270   1.386       .  A
C2269      H2272   1.085       .  S
C2270      C2273   1.445       .  S
C2273      N2275   1.157   1_545  T
C2274      N2276   1.157       .  T
C2277      C2278   1.397   1_455  A
C2277      C2282   1.411       .  A
C2278      C2279   1.398       .  A
C2278      H2283   1.085       .  S
C2279      C2280   1.417       .  A
C2279      C2286   1.442       .  S
C2280      C2281   1.402   1_655  A
C2281      C2282   1.393       .  A
C2281      H2284   1.084       .  S
C2282      C2285   1.445       .  S
C2285      N2287   1.157       .  T
C2286      N2288   1.156       .  T
C2289      C2290   1.404       .  A
C2289      C2294   1.411       .  A
C2290      C2291   1.391       .  A
C2290      H2295   1.085       .  S
C2291      C2292   1.402       .  A
C2291      C2298   1.439       .  S
C2292      C2293   1.401       .  A
C2293      C2294   1.392       .  A
C2293      H2296   1.084       .  S
C2294      C2297   1.445       .  S
C2297      N2299   1.157       .  T
C2298      N2300   1.155       .  T
C2301      C2302   1.401   1_655  A
C2301      C2306   1.403       .  A
C2302      C2303   1.387       .  A
C2302      H2307   1.086       .  S
C2303      C2304   1.407       .  A
C2303      C2310   1.445       .  S
C2304      C2305   1.405   1_455  A
C2305      C2306   1.399       .  A
C2305      H2308   1.085       .  S
C2306      C2309   1.440       .  S
C2309      N2311   1.156       .  T
C2310      N2312   1.157       .  T
C2313      C2314   1.403       .  A
C2313      C2318   1.423       .  A
C2314      C2315   1.395       .  A
C2314      H2319   1.084       .  S
C2315      C2316   1.417       .  A
C2315      C2322   1.446       .  S
C2316      C2317   1.395       .  A
C2317      C2318   1.399       .  A
C2317      H2320   1.085       .  S
C2318      C2321   1.444       .  S
C2321      N2323   1.157       .  T
C2322      N2324   1.158       .  T
C2325      C2326   1.404   1_556  A
C2325      C2330   1.401       .  A
C2326      C2327   1.393       .  A
C2326      H2331   1.086       .  S
C2327      C2328   1.410       .  A
C2327      C2334   1.444       .  S
C2328      C2329   1.411       .  A
C2329      C2330   1.400   1_554  A
C2329      H2332   1.085       .  S
C2330      C2333   1.441       .  S
C2333      N2335   1.156       .  T
C2334      N2336   1.157       .  T
C2337      C2338   1.401       .  A
C2337      C2342   1.414       .  A
C2338      C2339   1.403       .  A
C2338      H2343   1.085   1_655  S
C2339      C2340   1.417       .  A
C2339      C2346   1.444       .  S
C2340      C2341   1.400       .  A
C2341      C2342   1.392       .  A
C2341      H2344   1.085       .  S
C2342      C2345   1.447       .  S
C2345      N2347   1.157       .  T
C2346      N2348   1.157       .  T
C2349      C2350   1.399       .  A
C2349      C2354   1.413       .  A
C2350      C2351   1.396       .  A
C2350      H2355   1.085       .  S
C2351      C2352   1.408       .  A
C2351      C2358   1.437       .  S
C2352      C2353   1.399       .  A
C2353      C2354   1.389       .  A
C2353      H2356   1.086       .  S
C2354      C2357   1.447   1_655  S
C2357      N2359   1.157       .  T
C2358      N2360   1.155       .  T
C2361      C2362   1.413       .  A
C2361      C2366   1.409       .  A
C2362      C2363   1.395       .  A
C2362      H2367   1.085       .  S
C2363      C2364   1.404       .  A
C2363      C2370   1.442       .  S
C2364      C2365   1.411       .  A
C2365      C2366   1.396       .  A
C2365      H2368   1.085       .  S
C2366      C2369   1.444       .  S
C2369      N2371   1.158       .  T
C2370      N2372   1.157       .  T
C2373      C2374   1.403       .  A
C2373      C2378   1.412       .  A
C2374      C2375   1.387       .  A
C2374      H2379   1.084       .  S
C2375      C2376   1.406       .  A
C2375      C2382   1.446       .  S
C2376      C2377   1.397       .  A
C2377      C2378   1.391       .  A
C2377      H2380   1.085       .  S
C2378      C2381   1.444       .  S
C2381      N2383   1.157   1_655  T
C2382      N2384   1.157       .  T
C2385      C2386   1.397       .  A
C2385      C2390   1.404       .  A
C2386      C2387   1.391       .  A
C2386      H2391   1.085       .  S
C2387      C2388   1.410       .  A
C2387      C2394   1.444       .  S
C2388      C2389   1.401       .  A
C2389      C2390   1.389       .  A
C2389      H2392   1.085       .  S
C2390      C2393   1.445       .  S
C2393      N2395   1.157       .  T
C2394      N2396   1.157       .  T
C2397      C2398   1.412       .  A
C2397      C2402   1.417       .  A
C2398      C2399   1.396       .  A
C2398      H2403   1.084       .  S
C2399      C2400   1.403       .  A
C2399      C2406   1.444       .  S
C2400      C2401   1.397       .  A
C2401      C2402   1.390       .  A
C2401      H2404   1.086       .  S
C2402      C2405   1.443       .  S
C2405      N2407   1.157       .  T
C2406      N2408   1.157       .  T
C2409      C2410   1.406       .  A
C2409      C2414   1.405       .  A
C2410      C2411   1.406       .  A
C2410      H2415   1.084       .  S
C2411      C2412   1.412       .  A
C2411      C2418   1.443       .  S
C2412      C2413   1.408       .  A
C2413      C2414   1.390       .  A
C2413      H2416   1.085       .  S
C2414      C2417   1.446       .  S
C2417      N2419   1.157       .  T
C2418      N2420   1.157       .  T
C2421      C2422   1.404       .  A
C2421      C2426   1.421       .  A
C2422      C2423   1.387       .  A
C2422      H2427   1.083       .  S
C2423      C2424   1.409       .  A
C2423      C2430   1.447       .  S
C2424      C2425   1.398       .  A
C2425      C2426   1.402       .  A
C2425      H2428   1.085       .  S
C2426      C2429   1.444       .  S
C2429      N2431   1.157       .  T
C2430      N2432   1.157       .  T
C2433      C2434   1.400       .  A
C2433      C2438   1.416       .  A
C2434      C2435   1.400       .  A
C2434      H2439   1.085       .  S
C2435      C2436   1.417       .  A
C2435      C2442   1.444       .  S
C2436      C2437   1.397       .  A
C2437      C2438   1.394       .  A
C2437      H2440   1.085       .  S
C2438      C2441   1.443       .  S
C2441      N2443   1.156       .  T
C2442      N2444   1.157       .  T
C2445      C2446   1.404       .  A
C2445      C2450   1.406       .  A
C2446      C2447   1.389       .  A
C2446      H2451   1.085       .  S
C2447      C2448   1.402       .  A
C2447      C2454   1.444       .  S
C2448      C2449   1.402       .  A
C2449      C2450   1.390       .  A
C2449      H2452   1.085       .  S
C2450      C2453   1.444       .  S
C2453      N2455   1.157       .  T
C2454      N2456   1.157       .  T
C2457      C2458   1.394       .  A
C2457      C2462   1.402       .  A
C2458      C2459   1.389       .  A
C2458      H2463   1.086       .  S
C2459      C2460   1.421       .  A
C2459      C2466   1.445       .  S
C2460      C2461   1.407       .  A
C2461      C2462   1.390       .  A
C2461      H2464   1.083       .  S
C2462      C2465   1.442       .  S
C2465      N2467   1.156       .  T
C2466      N2468   1.158       .  T
C2469      C2470   1.412       .  A
C2469      C2474   1.415       .  A
C2470      C2471   1.401       .  A
C2470      H2475   1.084       .  S
C2471      C2472   1.402       .  A
C2471      C2478   1.443       .  S
C2472      C2473   1.401       .  A
C2473      C2474   1.386       .  A
C2473      H2476   1.086       .  S
C2474      C2477   1.446       .  S
C2477      N2479   1.158       .  T
C2478      N2480   1.157       .  T
C2481      C2482   1.397       .  A
C2481      C2486   1.412       .  A
C2482      C2483   1.383       .  A
C2482      H2487   1.086       .  S
C2483      C2484   1.411       .  A
C2483      C2490   1.447       .  S
C2484      C2485   1.403       .  A
C2485      C2486   1.404       .  A
C2485      H2488   1.084       .  S
C2486      C2489   1.444       .  S
C2489      N2491   1.158       .  T
C2490      N2492   1.157       .  T
C2493      C2494   1.403       .  A
C2493      C2498   1.407       .  A
C2494      C2495   1.392       .  A
C2494      H2499   1.085       .  S
C2495      C2496   1.410       .  A
C2495      C2502   1.444       .  S
C2496      C2497   1.408       .  A
C2497      C2498   1.400       .  A
C2497      H2500   1.085       .  S
C2498      C2501   1.443       .  S
C2501      N2503   1.157       .  T
C2502      N2504   1.157       .  T
C2505      C2506   1.406       .  A
C2505      C2510   1.404       .  A
C2506      C2507   1.396       .  A
C2506      H2511   1.085   1_455  S
C2507      C2508   1.407       .  A
C2507      C2514   1.444       .  S
C2508      C2509   1.407       .  A
C2509      C2510   1.396       .  A
C2509      H2512   1.085       .  S
C2510      C2513   1.444       .  S
C2513      N2515   1.157       .  T
C2514      N2516   1.157   1_455  T
C2517      C2518   1.394       .  A
C2517      C2522   1.414       .  A
C2518      C2519   1.400       .  A
C2518      H2523   1.085       .  S
C2519      C2520   1.427       .  A
C2519      C2526   1.445       .  S
C2520      C2521   1.401       .  A
C2521      C2522   1.391       .  A
C2521      H2524   1.085       .  S
C2522      C2525   1.445       .  S
C2525      N2527   1.157       .  T
C2526      N2528   1.157       .  T
C2529      C2530   1.399       .  A
C2529      C2534   1.416       .  A
C2530      C2531   1.389       .  A
C2530      H2535   1.085       .  S
C2531      C2532   1.413       .  A
C2531      C2538   1.446       .  S
C2532      C2533   1.400       .  A
C2533      C2534   1.400       .  A
C2533      H2536   1.085       .  S
C2534      C2537   1.445       .  S
C2537      N2539   1.158       .  T
C2538      N2540   1.157       .  T
C2541      C2542   1.405       .  A
C2541      C2546   1.426       .  A
C2542      C2543   1.393       .  A
C2542      H2547   1.082       .  S
C2543      C2544   1.408       .  A
C2543      C2550   1.445       .  S
C2544      C2545   1.392       .  A
C2545      C2546   1.395       .  A
C2545      H2548   1.085       .  S
C2546      C2549   1.445       .  S
C2549      N2551   1.158       .  T
C2550      N2552   1.157       .  T
C2553      C2554   1.403       .  A
C2553      C2558   1.414       .  A
C2554      C2555   1.390       .  A
C2554      H2559   1.085       .  S
C2555      C2556   1.409       .  A
C2555      C2562   1.446       .  S
C2556      C2557   1.400       .  A
C2557      C2558   1.396       .  A
C2557      H2560   1.085       .  S
C2558      C2561   1.444       .  S
C2561      N2563   1.157       .  T
C2562      N2564   1.157       .  T
C2565      C2566   1.402       .  A
C2565      C2570   1.419       .  A
C2566      C2567   1.382       .  A
C2566      H2571   1.082       .  S
C2567      C2568   1.410       .  A
C2567      C2574   1.444       .  S
C2568      C2569   1.400       .  A
C2569      C2570   1.407       .  A
C2569      H2572   1.084       .  S
C2570      C2573   1.442       .  S
C2573      N2575   1.157       .  T
C2574      N2576   1.156       .  T
C2577      C2578   1.405       .  A
C2577      C2582   1.412       .  A
C2578      C2579   1.390       .  A
C2578      H2583   1.085       .  S
C2579      C2580   1.408       .  A
C2579      C2586   1.443       .  S
C2580      C2581   1.407       .  A
C2581      C2582   1.407       .  A
C2581      H2584   1.084       .  S
C2582      C2585   1.443       .  S
C2585      N2587   1.157       .  T
C2586      N2588   1.156       .  T
C2589      C2590   1.408       .  A
C2589      C2594   1.424       .  A
C2590      C2591   1.394       .  A
C2590      H2595   1.084       .  S
C2591      C2592   1.407       .  A
C2591      C2598   1.445       .  S
C2592      C2593   1.396       .  A
C2593      C2594   1.396       .  A
C2593      H2596   1.085       .  S
C2594      C2597   1.445       .  S
C2597      N2599   1.158       .  T
C2598      N2600   1.157       .  T
C2601      C2602   1.402       .  A
C2601      C2606   1.413       .  A
C2602      C2603   1.393       .  A
C2602      H2607   1.085       .  S
C2603      C2604   1.406       .  A
C2603      C2610   1.436       .  S
C2604      C2605   1.402       .  A
C2605      C2606   1.396       .  A
C2605      H2608   1.085       .  S
C2606      C2609   1.445       .  S
C2609      N2611   1.157       .  T
C2610      N2612   1.154       .  T
C2613      C2614   1.400       .  A
C2613      C2618   1.402       .  A
C2614      C2615   1.391       .  A
C2614      H2619   1.086       .  S
C2615      C2616   1.409       .  A
C2615      C2622   1.444       .  S
C2616      C2617   1.406       .  A
C2617      C2618   1.389       .  A
C2617      H2620   1.085       .  S
C2618      C2621   1.444       .  S
C2621      N2623   1.157       .  T
C2622      N2624   1.157       .  T
C2625      C2626   1.404       .  A
C2625      C2630   1.420       .  A
C2626      C2627   1.401       .  A
C2626      H2631   1.084       .  S
C2627      C2628   1.413       .  A
C2627      C2634   1.444       .  S
C2628      C2629   1.393       .  A
C2629      C2630   1.388       .  A
C2629      H2632   1.086       .  S
C2630      C2633   1.444       .  S
C2633      N2635   1.157       .  T
C2634      N2636   1.157       .  T
C2637      C2638   1.397       .  A
C2637      C2642   1.411       .  A
C2638      C2639   1.394       .  A
C2638      H2643   1.085       .  S
C2639      C2640   1.415       .  A
C2639      C2646   1.445       .  S
C2640      C2641   1.404       .  A
C2641      C2642   1.403       .  A
C2641      H2644   1.084       .  S
C2642      C2645   1.444       .  S
C2645      N2647   1.157       .  T
C2646      N2648   1.157       .  T
C2649      C2650   1.397       .  A
C2649      C2654   1.415       .  A
C2650      C2651   1.398       .  A
C2650      H2655   1.084       .  S
C2651      C2652   1.418       .  A
C2651      C2658   1.445       .  S
C2652      C2653   1.401       .  A
C2653      C2654   1.397       .  A
C2653      H2656   1.084       .  S
C2654      C2657   1.444       .  S
C2657      N2659   1.157       .  T
C2658      N2660   1.157       .  T
C2661      C2662   1.399       .  A
C2661      C2666   1.411       .  A
C2662      C2663   1.387       .  A
C2662      H2667   1.086       .  S
C2663      C2664   1.411       .  A
C2663      C2670   1.446       .  S
C2664      C2665   1.403       .  A
C2665      C2666   1.400       .  A
C2665      H2668   1.085       .  S
C2666      C2669   1.443       .  S
C2669      N2671   1.157       .  T
C2670      N2672   1.157       .  T
C2673      C2674   1.408       .  A
C2673      C2678   1.407       .  A
C2674      C2675   1.400       .  A
C2674      H2679   1.085       .  S
C2675      C2676   1.411       .  A
C2675      C2682   1.444       .  S
C2676      C2677   1.408       .  A
C2677      C2678   1.395       .  A
C2677      H2680   1.085       .  S
C2678      C2681   1.443       .  S
C2681      N2683   1.157       .  T
C2682      N2684   1.157       .  T
C2685      C2686   1.399       .  A
C2685      C2690   1.410       .  A
C2686      C2687   1.403       .  A
C2686      H2691   1.085       .  S
C2687      C2688   1.415       .  A
C2687      C2694   1.442       .  S
C2688      C2689   1.402       .  A
C2689      C2690   1.387       .  A
C2689      H2692   1.084       .  S
C2690      C2693   1.447       .  S
C2693      N2695   1.157       .  T
C2694      N2696   1.157       .  T
C2697      C2698   1.399       .  A
C2697      C2702   1.402       .  A
C2698      C2699   1.393       .  A
C2698      H2703   1.085       .  S
C2699      C2700   1.417       .  A
C2699      C2706   1.445       .  S
C2700      C2701   1.410       .  A
C2701      C2702   1.389       .  A
C2701      H2704   1.083       .  S
C2702      C2705   1.445       .  S
C2705      N2707   1.157       .  T
C2706      N2708   1.158       .  T
C2709      C2710   1.403   1_545  A
C2709      C2714   1.412   1_545  A
C2710      C2711   1.397       .  A
C2710      H2715   1.085       .  S
C2711      C2712   1.407       .  A
C2711      C2718   1.440       .  S
C2712      C2713   1.401       .  A
C2713      C2714   1.388       .  A
C2713      H2716   1.085       .  S
C2714      C2717   1.446   1_565  S
C2717      N2719   1.157       .  T
C2718      N2720   1.156       .  T
C2721      C2722   1.402       .  A
C2721      C2726   1.412       .  A
C2722      C2723   1.393       .  A
C2722      H2727   1.085       .  S
C2723      C2724   1.408       .  A
C2723      C2730   1.445       .  S
C2724      C2725   1.400       .  A
C2725      C2726   1.393       .  A
C2725      H2728   1.085       .  S
C2726      C2729   1.445       .  S
C2729      N2731   1.157       .  T
C2730      N2732   1.157       .  T
C2733      C2734   1.405       .  A
C2733      C2738   1.410       .  A
C2734      C2735   1.399       .  A
C2734      H2739   1.085       .  S
C2735      C2736   1.407       .  A
C2735      C2742   1.443       .  S
C2736      C2737   1.397       .  A
C2737      C2738   1.390       .  A
C2737      H2740   1.085       .  S
C2738      C2741   1.442       .  S
C2741      N2743   1.156       .  T
C2742      N2744   1.157       .  T
C2745      C2746   1.403       .  A
C2745      C2750   1.406   1_545  A
C2746      C2747   1.389       .  A
C2746      H2751   1.085       .  S
C2747      C2748   1.407       .  A
C2747      C2754   1.444       .  S
C2748      C2749   1.408   1_545  A
C2749      C2750   1.403       .  A
C2749      H2752   1.085       .  S
C2750      C2753   1.443       .  S
C2753      N2755   1.157       .  T
C2754      N2756   1.157       .  T
C2757      C2758   1.400       .  A
C2757      C2762   1.415       .  A
C2758      C2759   1.392       .  A
C2758      H2763   1.086       .  S
C2759      C2760   1.410       .  A
C2759      C2766   1.439       .  S
C2760      C2761   1.402       .  A
C2761      C2762   1.400       .  A
C2761      H2764   1.085       .  S
C2762      C2765   1.444       .  S
C2765      N2767   1.157   1_565  T
C2766      N2768   1.155       .  T
C2769      C2770   1.412       .  A
C2769      C2774   1.418       .  A
C2770      C2771   1.400       .  A
C2770      H2775   1.084       .  S
C2771      C2772   1.404       .  A
C2771      C2778   1.444       .  S
C2772      C2773   1.396       .  A
C2773      C2774   1.385       .  A
C2773      H2776   1.086       .  S
C2774      C2777   1.444       .  S
C2777      N2779   1.157       .  T
C2778      N2780   1.157       .  T
C2781      C2782   1.402       .  A
C2781      C2786   1.414       .  A
C2782      C2783   1.395       .  A
C2782      H2787   1.085       .  S
C2783      C2784   1.410       .  A
C2783      C2790   1.445       .  S
C2784      C2785   1.394       .  A
C2785      C2786   1.388       .  A
C2785      H2788   1.082       .  S
C2786      C2789   1.445       .  S
C2789      N2791   1.157       .  T
C2790      N2792   1.157       .  T
C2793      C2794   1.413       .  A
C2793      C2798   1.415       .  A
C2794      C2795   1.393       .  A
C2794      H2799   1.084       .  S
C2795      C2796   1.401       .  A
C2795      C2802   1.444       .  S
C2796      C2797   1.400       .  A
C2797      C2798   1.391       .  A
C2797      H2800   1.086       .  S
C2798      C2801   1.444       .  S
C2801      N2803   1.157       .  T
C2802      N2804   1.157   1_554  T
C2805      C2806   1.405       .  A
C2805      C2810   1.411       .  A
C2806      C2807   1.396       .  A
C2806      H2811   1.084       .  S
C2807      C2808   1.405       .  A
C2807      C2814   1.443       .  S
C2808      C2809   1.400       .  A
C2809      C2810   1.390       .  A
C2809      H2812   1.085       .  S
C2810      C2813   1.446       .  S
C2813      N2815   1.157       .  T
C2814      N2816   1.157       .  T
C2817      C2818   1.407       .  A
C2817      C2822   1.414       .  A
C2818      C2819   1.393       .  A
C2818      H2823   1.083       .  S
C2819      C2820   1.403       .  A
C2819      C2826   1.444       .  S
C2820      C2821   1.399       .  A
C2821      C2822   1.389       .  A
C2821      H2824   1.085       .  S
C2822      C2825   1.445       .  S
C2825      N2827   1.157       .  T
C2826      N2828   1.157       .  T
C2829      C2830   1.412       .  A
C2829      C2834   1.413       .  A
C2830      C2831   1.395       .  A
C2830      H2835   1.085       .  S
C2831      C2832   1.400       .  A
C2831      C2838   1.443       .  S
C2832      C2833   1.403       .  A
C2833      C2834   1.397       .  A
C2833      H2836   1.085       .  S
C2834      C2837   1.444       .  S
C2837      N2839   1.158   1_554  T
C2838      N2840   1.157       .  T
C2841      C2842   1.400       .  A
C2841      C2846   1.412       .  A
C2842      C2843   1.394       .  A
C2842      H2847   1.085       .  S
C2843      C2844   1.409       .  A
C2843      C2850   1.445       .  S
C2844      C2845   1.399       .  A
C2845      C2846   1.394       .  A
C2845      H2848   1.085       .  S
C2846      C2849   1.446       .  S
C2849      N2851   1.157       .  T
C2850      N2852   1.157       .  T
C2853      C2854   1.405       .  A
C2853      C2858   1.408       .  A
C2854      C2855   1.402       .  A
C2854      H2859   1.085       .  S
C2855      C2856   1.408       .  A
C2855      C2862   1.443       .  S
C2856      C2857   1.401       .  A
C2857      C2858   1.391       .  A
C2857      H2860   1.085       .  S
C2858      C2861   1.445       .  S
C2861      N2863   1.157       .  T
C2862      N2864   1.157       .  T
C2865      C2866   1.400       .  A
C2865      C2870   1.403       .  A
C2866      C2867   1.396       .  A
C2866      H2871   1.085       .  S
C2867      C2868   1.411       .  A
C2867      C2874   1.443       .  S
C2868      C2869   1.404       .  A
C2869      C2870   1.389       .  A
C2869      H2872   1.081       .  S
C2870      C2873   1.444       .  S
C2873      N2875   1.157       .  T
C2874      N2876   1.158       .  T
C2877      C2878   1.405       .  A
C2877      C2882   1.424       .  A
C2878      C2879   1.393       .  A
C2878      H2883   1.084       .  S
C2879      C2880   1.411       .  A
C2879      C2886   1.446       .  S
C2880      C2881   1.393       .  A
C2881      C2882   1.398       .  A
C2881      H2884   1.085       .  S
C2882      C2885   1.442       .  S
C2885      N2887   1.157       .  T
C2886      N2888   1.158       .  T
C2889      C2890   1.401       .  A
C2889      C2894   1.422       .  A
C2890      C2891   1.389       .  A
C2890      H2895   1.085       .  S
C2891      C2892   1.411       .  A
C2891      C2898   1.443       .  S
C2892      C2893   1.399       .  A
C2893      C2894   1.404       .  A
C2893      H2896   1.085       .  S
C2894      C2897   1.443       .  S
C2897      N2899   1.157       .  T
C2898      N2900   1.157       .  T
C2901      C2902   1.398       .  A
C2901      C2906   1.411       .  A
C2902      C2903   1.401       .  A
C2902      H2907   1.085       .  S
C2903      C2904   1.420       .  A
C2903      C2910   1.443       .  S
C2904      C2905   1.405       .  A
C2905      C2906   1.401       .  A
C2905      H2908   1.085       .  S
C2906      C2909   1.444       .  S
C2909      N2911   1.157       .  T
C2910      N2912   1.158       .  T
C2913      C2914   1.403   1_554  A
C2913      C2918   1.422       .  A
C2914      C2915   1.392       .  A
C2914      H2919   1.085       .  S
C2915      C2916   1.409       .  A
C2915      C2922   1.444       .  S
C2916      C2917   1.396   1_556  A
C2917      C2918   1.398       .  A
C2917      H2920   1.085       .  S
C2918      C2921   1.445       .  S
C2921      N2923   1.158       .  T
C2922      N2924   1.157       .  T
C2925      C2926   1.396       .  A
C2925      C2930   1.406       .  A
C2926      C2927   1.384       .  A
C2926      H2931   1.086       .  S
C2927      C2928   1.422       .  A
C2927      C2934   1.446       .  S
C2928      C2929   1.412       .  A
C2929      C2930   1.403       .  A
C2929      H2932   1.084       .  S
C2930      C2933   1.444       .  S
C2933      N2935   1.157       .  T
C2934      N2936   1.158       .  T
C2937      C2938   1.400       .  A
C2937      C2942   1.408       .  A
C2938      C2939   1.398       .  A
C2938      H2943   1.085       .  S
C2939      C2940   1.412       .  A
C2939      C2946   1.444       .  S
C2940      C2941   1.401       .  A
C2941      C2942   1.389       .  A
C2941      H2944   1.085       .  S
C2942      C2945   1.446   1_554  S
C2945      N2947   1.157       .  T
C2946      N2948   1.157       .  T
C2949      C2950   1.408       .  A
C2949      C2954   1.413       .  A
C2950      C2951   1.394       .  A
C2950      H2955   1.084       .  S
C2951      C2952   1.402       .  A
C2951      C2958   1.444       .  S
C2952      C2953   1.400       .  A
C2953      C2954   1.392       .  A
C2953      H2956   1.085       .  S
C2954      C2957   1.445       .  S
C2957      N2959   1.157       .  T
C2958      N2960   1.157       .  T
C2961      C2962   1.402       .  A
C2961      C2966   1.409       .  A
C2962      C2963   1.399       .  A
C2962      H2967   1.085       .  S
C2963      C2964   1.410       .  A
C2963      C2970   1.442       .  S
C2964      C2965   1.402       .  A
C2965      C2966   1.388       .  A
C2965      H2968   1.085       .  S
C2966      C2969   1.446       .  S
C2969      N2971   1.157       .  T
C2970      N2972   1.157       .  T
C2973      C2974   1.415       .  A
C2973      C2978   1.415       .  A
C2974      C2975   1.396       .  A
C2974      H2979   1.083       .  S
C2975      C2976   1.399       .  A
C2975      C2982   1.443       .  S
C2976      C2977   1.403       .  A
C2977      C2978   1.392       .  A
C2977      H2980   1.086       .  S
C2978      C2981   1.445       .  S
C2981      N2983   1.158       .  T
C2982      N2984   1.157       .  T
C2985      C2986   1.400       .  A
C2985      C2990   1.410       .  A
C2986      C2987   1.401       .  A
C2986      H2991   1.084       .  S
C2987      C2988   1.414       .  A
C2987      C2994   1.443       .  S
C2988      C2989   1.401       .  A
C2989      C2990   1.388       .  A
C2989      H2992   1.084       .  S
C2990      C2993   1.446       .  S
C2993      N2995   1.157       .  T
C2994      N2996   1.157       .  T
C2997      C2998   1.411       .  A
C2997      C3002   1.411       .  A
C2998      C2999   1.394       .  A
C2998      H3003   1.083       .  S
C2999      C3000   1.401       .  A
C2999      C3006   1.444       .  S
C3000      C3001   1.405       .  A
C3001      C3002   1.396       .  A
C3001      H3004   1.085       .  S
C3002      C3005   1.445       .  S
C3005      N3007   1.157       .  T
C3006      N3008   1.157       .  T
C3009      C3010   1.405       .  A
C3009      C3014   1.406   1_554  A
C3010      C3011   1.397       .  A
C3010      H3015   1.085       .  S
C3011      C3012   1.408   1_554  A
C3011      C3018   1.443       .  S
C3012      C3013   1.406       .  A
C3013      C3014   1.392       .  A
C3013      H3016   1.085       .  S
C3014      C3017   1.445       .  S
C3017      N3019   1.157       .  T
C3018      N3020   1.157       .  T
C3021      C3022   1.403       .  A
C3021      C3026   1.406       .  A
C3022      C3023   1.393       .  A
C3022      H3027   1.085       .  S
C3023      C3024   1.413       .  A
C3023      C3030   1.446       .  S
C3024      C3025   1.408       .  A
C3025      C3026   1.400       .  A
C3025      H3028   1.084       .  S
C3026      C3029   1.443       .  S
C3029      N3031   1.157       .  T
C3030      N3032   1.158       .  T
C3033      C3034   1.399       .  A
C3033      C3038   1.406       .  A
C3034      C3035   1.396       .  A
C3034      H3039   1.085       .  S
C3035      C3036   1.410       .  A
C3035      C3042   1.438       .  S
C3036      C3037   1.406       .  A
C3037      C3038   1.394       .  A
C3037      H3040   1.085       .  S
C3038      C3041   1.445       .  S
C3041      N3043   1.157       .  T
C3042      N3044   1.155       .  T
C3045      C3046   1.395       .  A
C3045      C3050   1.409       .  A
C3046      C3047   1.397       .  A
C3046      H3051   1.085       .  S
C3047      C3048   1.420       .  A
C3047      C3054   1.445       .  S
C3048      C3049   1.402       .  A
C3049      C3050   1.392       .  A
C3049      H3052   1.085       .  S
C3050      C3053   1.446       .  S
C3053      N3055   1.157       .  T
C3054      N3056   1.157       .  T
C3057      C3058   1.411       .  A
C3057      C3062   1.417       .  A
C3058      C3059   1.385       .  A
C3058      H3063   1.084       .  S
C3059      C3060   1.401       .  A
C3059      C3066   1.447       .  S
C3060      C3061   1.397       .  A
C3061      C3062   1.398       .  A
C3061      H3064   1.085       .  S
C3062      C3065   1.441       .  S
C3065      N3067   1.157       .  T
C3066      N3068   1.157       .  T
C3069      C3070   1.410       .  A
C3069      C3074   1.408   1_545  A
C3070      C3071   1.395       .  A
C3070      H3075   1.084       .  S
C3071      C3072   1.402   1_545  A
C3071      C3078   1.443       .  S
C3072      C3073   1.406       .  A
C3073      C3074   1.395       .  A
C3073      H3076   1.085       .  S
C3074      C3077   1.445       .  S
C3077      N3079   1.157       .  T
C3078      N3080   1.157       .  T
C3081      C3082   1.395       .  A
C3081      C3086   1.407       .  A
C3082      C3083   1.399       .  A
C3082      H3087   1.085       .  S
C3083      C3084   1.423       .  A
C3083      C3090   1.444       .  S
C3084      C3085   1.405       .  A
C3085      C3086   1.385       .  A
C3085      H3088   1.084       .  S
C3086      C3089   1.447       .  S
C3089      N3091   1.157       .  T
C3090      N3092   1.158       .  T
C3093      C3094   1.404       .  A
C3093      C3098   1.410       .  A
C3094      C3095   1.390       .  A
C3094      H3099   1.085       .  S
C3095      C3096   1.407       .  A
C3095      C3102   1.445   1_565  S
C3096      C3097   1.404       .  A
C3097      C3098   1.403       .  A
C3097      H3100   1.084       .  S
C3098      C3101   1.443       .  S
C3101      N3103   1.157       .  T
C3102      N3104   1.157       .  T
C3105      C3106   1.405       .  A
C3105      C3110   1.403       .  A
C3106      C3107   1.394       .  A
C3106      H3111   1.085       .  S
C3107      C3108   1.411       .  A
C3107      C3114   1.445       .  S
C3108      C3109   1.411       .  A
C3109      C3110   1.393       .  A
C3109      H3112   1.084       .  S
C3110      C3113   1.444       .  S
C3113      N3115   1.157       .  T
C3114      N3116   1.157       .  T
C3117      C3118   1.410       .  A
C3117      C3122   1.409       .  A
C3118      C3119   1.391       .  A
C3118      H3123   1.085       .  S
C3119      C3120   1.402       .  A
C3119      C3126   1.445       .  S
C3120      C3121   1.402       .  A
C3121      C3122   1.396       .  A
C3121      H3124   1.085       .  S
C3122      C3125   1.443   1_565  S
C3125      N3127   1.157       .  T
C3126      N3128   1.157       .  T
C3129      C3130   1.407       .  A
C3129      C3134   1.416       .  A
C3130      C3131   1.389       .  A
C3130      H3135   1.085       .  S
C3131      C3132   1.404       .  A
C3131      C3138   1.444       .  S
C3132      C3133   1.399       .  A
C3133      C3134   1.392       .  A
C3133      H3136   1.085       .  S
C3134      C3137   1.445       .  S
C3137      N3139   1.158       .  T
C3138      N3140   1.157       .  T
C3141      C3142   1.404       .  A
C3141      C3146   1.410       .  A
C3142      C3143   1.388       .  A
C3142      H3147   1.086       .  S
C3143      C3144   1.404       .  A
C3143      C3150   1.445       .  S
C3144      C3145   1.403       .  A
C3145      C3146   1.399       .  A
C3145      H3148   1.084       .  S
C3146      C3149   1.444       .  S
C3149      N3151   1.157       .  T
C3150      N3152   1.157       .  T
C3153      C3154   1.402       .  A
C3153      C3158   1.406       .  A
C3154      C3155   1.397       .  A
C3154      H3159   1.085       .  S
C3155      C3156   1.410       .  A
C3155      C3162   1.443       .  S
C3156      C3157   1.405       .  A
C3157      C3158   1.395       .  A
C3157      H3160   1.085       .  S
C3158      C3161   1.443       .  S
C3161      N3163   1.157       .  T
C3162      N3164   1.157       .  T
C3165      C3166   1.407       .  A
C3165      C3170   1.416       .  A
C3166      C3167   1.396       .  A
C3166      H3171   1.084       .  S
C3167      C3168   1.407       .  A
C3167      C3174   1.444       .  S
C3168      C3169   1.399       .  A
C3169      C3170   1.394       .  A
C3169      H3172   1.085       .  S
C3170      C3173   1.445       .  S
C3173      N3175   1.157       .  T
C3174      N3176   1.157       .  T
C3177      C3178   1.409       .  A
C3177      C3182   1.418       .  A
C3178      C3179   1.390       .  A
C3178      H3183   1.085       .  S
C3179      C3180   1.410       .  A
C3179      C3186   1.447       .  S
C3180      C3181   1.400       .  A
C3181      C3182   1.404       .  A
C3181      H3184   1.085       .  S
C3182      C3185   1.441       .  S
C3185      N3187   1.157       .  T
C3186      N3188   1.158       .  T
C3189      C3190   1.403       .  A
C3189      C3194   1.419       .  A
C3190      C3191   1.394       .  A
C3190      H3195   1.081       .  S
C3191      C3192   1.412       .  A
C3191      C3198   1.446       .  S
C3192      C3193   1.395       .  A
C3193      C3194   1.398       .  A
C3193      H3196   1.084       .  S
C3194      C3197   1.444       .  S
C3197      N3199   1.157       .  T
C3198      N3200   1.157       .  T
C3201      C3202   1.409       .  A
C3201      C3206   1.413       .  A
C3202      C3203   1.392       .  A
C3202      H3207   1.084       .  S
C3203      C3204   1.402       .  A
C3203      C3210   1.444       .  S
C3204      C3205   1.400       .  A
C3205      C3206   1.394       .  A
C3205      H3208   1.085       .  S
C3206      C3209   1.444       .  S
C3209      N3211   1.157       .  T
C3210      N3212   1.157       .  T
C3213      C3214   1.409       .  A
C3213      C3218   1.413       .  A
C3214      C3215   1.396       .  A
C3214      H3219   1.083       .  S
C3215      C3216   1.407       .  A
C3215      C3222   1.443       .  S
C3216      C3217   1.407       .  A
C3217      C3218   1.397       .  A
C3217      H3220   1.085       .  S
C3218      C3221   1.445       .  S
C3221      N3223   1.158   1_565  T
C3222      N3224   1.157       .  T
C3225      C3226   1.400       .  A
C3225      C3230   1.408       .  A
C3226      C3227   1.399       .  A
C3226      H3231   1.085       .  S
C3227      C3228   1.413       .  A
C3227      C3234   1.444       .  S
C3228      C3229   1.399       .  A
C3229      C3230   1.393       .  A
C3229      H3232   1.085       .  S
C3230      C3233   1.445       .  S
C3233      N3235   1.157   1_645  T
C3234      N3236   1.157       .  T
C3237      C3238   1.409       .  A
C3237      C3242   1.414       .  A
C3238      C3239   1.395       .  A
C3238      H3243   1.084       .  S
C3239      C3240   1.406       .  A
C3239      C3246   1.444       .  S
C3240      C3241   1.401       .  A
C3241      C3242   1.386       .  A
C3241      H3244   1.086       .  S
C3242      C3245   1.446       .  S
C3245      N3247   1.157       .  T
C3246      N3248   1.157       .  T
C3249      C3250   1.407       .  A
C3249      C3254   1.415       .  A
C3250      C3251   1.394       .  A
C3250      H3255   1.085       .  S
C3251      C3252   1.403       .  A
C3251      C3258   1.440   1_655  S
C3252      C3253   1.401       .  A
C3253      C3254   1.393       .  A
C3253      H3256   1.086       .  S
C3254      C3257   1.445       .  S
C3257      N3259   1.158       .  T
C3258      N3260   1.156       .  T
C3261      C3262   1.411       .  A
C3261      C3266   1.415       .  A
C3262      C3263   1.393       .  A
C3262      H3267   1.084   1_455  S
C3263      C3264   1.402       .  A
C3263      C3270   1.445       .  S
C3264      C3265   1.399       .  A
C3265      C3266   1.393       .  A
C3265      H3268   1.085       .  S
C3266      C3269   1.444       .  S
C3269      N3271   1.157       .  T
C3270      N3272   1.157       .  T
C3273      C3274   1.405       .  A
C3273      C3278   1.416       .  A
C3274      C3275   1.403       .  A
C3274      H3279   1.083       .  S
C3275      C3276   1.407       .  A
C3275      C3282   1.438       .  S
C3276      C3277   1.397       .  A
C3277      C3278   1.390       .  A
C3277      H3280   1.085       .  S
C3278      C3281   1.446   1_545  S
C3281      N3283   1.157       .  T
C3282      N3284   1.156       .  T
C3285      C3286   1.412       .  A
C3285      C3290   1.414       .  A
C3286      C3287   1.400       .  A
C3286      H3291   1.084   1_556  S
C3287      C3288   1.403       .  A
C3287      C3294   1.444       .  S
C3288      C3289   1.402       .  A
C3289      C3290   1.395       .  A
C3289      H3292   1.086       .  S
C3290      C3293   1.444       .  S
C3293      N3295   1.157   1_565  T
C3294      N3296   1.157   1_556  T
C3297      C3298   1.401       .  A
C3297      C3302   1.406       .  A
C3298      C3299   1.399       .  A
C3298      H3303   1.085   1_565  S
C3299      C3300   1.411       .  A
C3299      C3306   1.444   1_565  S
C3300      C3301   1.402       .  A
C3301      C3302   1.389       .  A
C3301      H3304   1.085       .  S
C3302      C3305   1.445       .  S
C3305      N3307   1.157   1_554  T
C3306      N3308   1.158       .  T
C3309      C3310   1.400       .  A
C3309      C3314   1.416       .  A
C3310      C3311   1.392       .  A
C3310      H3315   1.086       .  S
C3311      C3312   1.412       .  A
C3311      C3318   1.445       .  S
C3312      C3313   1.399       .  A
C3313      C3314   1.402       .  A
C3313      H3316   1.085       .  S
C3314      C3317   1.443       .  S
C3317      N3319   1.157       .  T
C3318      N3320   1.157       .  T
C3321      C3322   1.404       .  A
C3321      C3326   1.405       .  A
C3322      C3323   1.401       .  A
C3322      H3327   1.085       .  S
C3323      C3324   1.414       .  A
C3323      C3330   1.444       .  S
C3324      C3325   1.408       .  A
C3325      C3326   1.390       .  A
C3325      H3328   1.085       .  S
C3326      C3329   1.445       .  S
C3329      N3331   1.157       .  T
C3330      N3332   1.157       .  T
C3333      C3334   1.401       .  A
C3333      C3338   1.420       .  A
C3334      C3335   1.393       .  A
C3334      H3339   1.083       .  S
C3335      C3336   1.414       .  A
C3335      C3342   1.445       .  S
C3336      C3337   1.396       .  A
C3337      C3338   1.396       .  A
C3337      H3340   1.081       .  S
C3338      C3341   1.445       .  S
C3341      N3343   1.157       .  T
C3342      N3344   1.157       .  T
