geometry optimzed in LAMMPS
_audit_creation_date              2020-11-30 
_audit_creation_method            'lammps2cif' 
_symmetry_space_group_name_H-M    'P1' 
_symmetry_Int_Tables_number       1 
_symmetry_cell_setting            triclinic 
loop_ 
_symmetry_equiv_pos_as_xyz 
  x,y,z 
_cell_length_a                    49.84604846 
_cell_length_b                    49.911719208072434 
_cell_length_c                    33.12688047900776 
_cell_angle_alpha                 90.47117956560139 
_cell_angle_beta                  89.29790399422411 
_cell_angle_gamma                 129.13524001112842 
loop_ 
_atom_site_label 
_atom_site_type_symbol 
_atom_site_fract_x 
_atom_site_fract_y 
_atom_site_fract_z 
_atom_site_charge 
O1          O  0.68949610  0.14897726  0.24894012    -0.72000
O2          O  0.75725937  0.19262817  0.16427081    -0.72000
O3          O  0.75792704  0.18175737  0.24439591    -0.72000
O4          O  0.68896077  0.16036554  0.16929166    -0.72100
O5          O  0.70027742  0.21044401  0.18343196    -0.72000
O6          O  0.76928657  0.23191811  0.25802524    -0.72000
O7          O  0.76871442  0.24283182  0.17782758    -0.72000
O8          O  0.70078892  0.19899694  0.26332895    -0.72000
Ni9        Ni  0.72300393  0.16914303  0.20619026     1.25400
Ni10       Ni  0.73520720  0.22287283  0.22116642     1.25400
C11         C  0.68434327  0.16683345  0.27025675     0.90200
C12         C  0.77371998  0.22464668  0.15680089     0.90100
C13         C  0.77453500  0.21027385  0.26388720     0.90200
C14         C  0.68357525  0.18200253  0.16394744     0.90300
C15         C  0.60283763  0.84487753  0.05347169     0.82700
N16         N  0.59151860  0.86325502  0.04822699    -0.75600
C17         C  0.59340477  0.87586061  0.01101008     0.85100
N18         N  0.59668865  0.85856556  0.48788373    -0.75600
C19         C  0.61322670  0.84505925  0.48720688     0.85200
N20         N  0.61530568  0.83852054  0.02148201    -0.77300
C21         C  0.41706671  0.73880543  0.50872805     0.82700
N22         N  0.43869558  0.77383298  0.50890588    -0.75600
C23         C  0.44421724  0.79128934  0.54370018     0.85100
N24         N  0.41351577  0.76930035  0.07972780    -0.75600
C25         C  0.39543820  0.73467156  0.07945216     0.85200
N26         N  0.40109676  0.72113850  0.54341797    -0.77300
C27         C  0.49726879  0.04168400  0.47954648     0.82100
N28         N  0.49309816  0.01243032  0.47349391    -0.75600
C29         C  0.49106695  0.99963895  0.00014621     0.85100
N30         N  0.49103449  0.01018062  0.03820730    -0.75600
C31         C  0.49624867  0.04014993  0.04391840     0.85200
N32         N  0.50218757  0.05992721  0.01171892    -0.77300
C33         C  0.60293915  0.09260014  0.44276153     0.82700
N34         N  0.59333809  0.06117257  0.45260321    -0.75600
C35         C  0.58613342  0.05052744  0.49176271     0.85100
N36         N  0.58598757  0.07345308  0.02539840    -0.75600
C37         C  0.59780175  0.10484402  0.01236801     0.85200
N38         N  0.60561029  0.11339438  0.47196375    -0.77300
C39         C  0.50148518  0.88433236  0.02438931     0.04700
C40         C  0.53736792  0.90397463  0.01792264     0.04700
C41         C  0.55724727  0.93891149  0.00714814    -0.15800
C42         C  0.54235980  0.95509867  0.00636001     0.04700
C43         C  0.50718147  0.93624158  0.01814753     0.04700
C44         C  0.48696970  0.90093291  0.02636172    -0.15800
H45         H  0.45959193  0.88619435  0.03257705     0.06800
H46         H  0.58465325  0.95398131  0.00083100     0.06800
O47         O  0.33211990  0.37247137  0.20539474    -0.72000
O48         O  0.26023037  0.34674960  0.28093273    -0.72000
O49         O  0.26527649  0.34587360  0.19916569    -0.72000
O50         O  0.32683435  0.37309024  0.28701384    -0.72100
O51         O  0.34379757  0.42652494  0.28422842    -0.72000
O52         O  0.28224585  0.39930127  0.19624911    -0.72000
O53         O  0.27722712  0.40016491  0.27792982    -0.72000
O54         O  0.34903228  0.42585916  0.20261917    -0.72000
Ni55       Ni  0.29549752  0.35761987  0.24319109     1.25400
Ni56       Ni  0.31366904  0.41486945  0.24010482     1.25400
C57         C  0.35224898  0.40336457  0.19158825     0.90200
C58         C  0.25737834  0.36946460  0.29224616     0.90100
C59         C  0.26386915  0.36820868  0.18324903     0.90200
C60         C  0.34503269  0.40408840  0.30022155     0.90300
O61         O  0.36580786  0.63094354  0.24521477    -0.72000
O62         O  0.34468258  0.56245183  0.32076144    -0.72000
O63         O  0.33026006  0.56207700  0.24176490    -0.72000
O64         O  0.37989166  0.63148262  0.32424768    -0.72100
O65         O  0.33132662  0.62252619  0.34145410    -0.72000
O66         O  0.28191635  0.55334469  0.25960784    -0.72000
O67         O  0.29626997  0.55369920  0.33835843    -0.72000
O68         O  0.31731228  0.62211855  0.26257498    -0.72000
Ni69       Ni  0.35692365  0.59705615  0.28237411     1.25400
Ni70       Ni  0.30497630  0.58758275  0.30118856     1.25400
C71         C  0.34486868  0.63734092  0.24115334     0.90200
C72         C  0.31712059  0.54711954  0.34212966     0.90100
C73         C  0.29807873  0.54683019  0.23686367     0.90200
C74         C  0.36352410  0.63817490  0.34641409     0.90300
C75         C  0.17181748  0.34971379  0.45915907     0.82700
N76         N  0.18272094  0.34789248  0.98729484    -0.75600
C77         C  0.16966275  0.34292783  0.02508669     0.85100
N78         N  0.14236686  0.34224642  0.03161400    -0.75600
C79         C  0.12743042  0.34568135  0.00033788     0.85200
N80         N  0.14286646  0.34642368  0.46608652    -0.77300
C81         C  0.24224317  0.46145439  0.49758723     0.82700
N82         N  0.20963772  0.44771448  0.48740991    -0.75600
C83         C  0.18309709  0.44386491  0.01362973     0.85100
N84         N  0.19244046  0.45195199  0.05306021    -0.75600
C85         C  0.22500193  0.46556167  0.06426882     0.85200
N86         N  0.25267544  0.47076339  0.53631412    -0.77300
C87         C  0.87018511  0.27063644  0.99018113     0.82700
N88         N  0.85556951  0.25943025  0.45873434    -0.75600
C89         C  0.87342888  0.26418751  0.42460008     0.85100
N90         N  0.90831295  0.28335475  0.42565264    -0.75600
C91         C  0.92547916  0.29804650  0.46079681     0.85200
N92         N  0.90524221  0.29178284  0.98996641    -0.77300
C93         C  0.96135980  0.44299465  0.43693813     0.82700
N94         N  0.98012036  0.43187564  0.43834624    -0.75600
C95         C  0.99489530  0.43905684  0.96786118     0.85100
N96         N  0.98670888  0.44656927  0.00308064    -0.75600
C97         C  0.97178319  0.46169108  0.00274155     0.85200
N98         N  0.95355945  0.45151246  0.47154796    -0.77300
C99         C  0.06901814  0.36984402  0.99014662     0.04700
C100        C  0.08705377  0.40249217  0.00944538     0.04700
C101        C  0.07405272  0.41506118  0.52020151    -0.15800
C102        C  0.03978423  0.39719575  0.50819733     0.04700
C103        C  0.02053275  0.36304038  0.49360717     0.04700
C104        C  0.03734798  0.34920003  0.48564210    -0.15800
H105        H  0.02289259  0.32326123  0.47364087     0.06800
H106        H  0.08838015  0.44082397  0.53275692     0.06800
O107        O  0.55228762  0.15419065  0.30479873    -0.72000
O108        O  0.57295010  0.21335784  0.21630184    -0.72000
O109        O  0.57439470  0.21929046  0.29788498    -0.72000
O110        O  0.55091240  0.14842103  0.22315827    -0.72100
O111        O  0.49609798  0.12800543  0.22324464    -0.72000
O112        O  0.51958874  0.19888869  0.29802487    -0.72000
O113        O  0.51810915  0.19293779  0.21647178    -0.72000
O114        O  0.49745487  0.13378607  0.30490017    -0.72000
Ni115      Ni  0.56460836  0.18453926  0.26057070     1.25400
Ni116      Ni  0.50583773  0.16266153  0.26070042     1.25400
C117        C  0.52156215  0.13452612  0.31940904     0.90200
C118        C  0.54877390  0.21248038  0.20171595     0.90100
C119        C  0.55079066  0.22055537  0.31030427     0.90200
C120        C  0.51981084  0.12701284  0.21050259     0.90300
O121        O  0.86424255  0.50781482  0.18678335    -0.72000
O122        O  0.90893364  0.49288179  0.26632801    -0.72000
O123        O  0.91344536  0.50035859  0.18492354    -0.72000
O124        O  0.85990774  0.50055930  0.26828221    -0.72100
O125        O  0.81890254  0.44349148  0.26155197    -0.72000
O126        O  0.87248146  0.44329989  0.17800420    -0.72000
O127        O  0.86798057  0.43584494  0.25942618    -0.72000
O128        O  0.82331144  0.45076078  0.18006325    -0.72000
Ni129      Ni  0.88810189  0.50245572  0.22684094     1.25400
Ni130      Ni  0.84419455  0.44129731  0.21951367     1.25400
C131        C  0.83663081  0.48166236  0.17016306     0.90200
C132        C  0.89559650  0.46192376  0.27605084     0.90100
C133        C  0.90154053  0.47184719  0.16764053     0.90200
C134        C  0.83086210  0.47207822  0.27873569     0.90300
O135        O  0.58523052  0.74283684  0.31081916    -0.72000
O136        O  0.57980679  0.68711749  0.22587219    -0.72000
O137        O  0.58589256  0.68909395  0.30740369    -0.72000
O138        O  0.57899514  0.74086238  0.22938748    -0.72100
O139        O  0.63653604  0.77777245  0.22295740    -0.72000
O140        O  0.64343591  0.72601110  0.30100574    -0.72000
O141        O  0.63737652  0.72409583  0.21956709    -0.72000
O142        O  0.64279297  0.77972654  0.30432202    -0.72000
Ni143      Ni  0.58040160  0.71364359  0.26857967     1.25400
Ni144      Ni  0.64209106  0.75321473  0.26170121     1.25400
C145        C  0.61493100  0.77021309  0.32159015     0.90200
C146        C  0.60777005  0.69663019  0.20881499     0.90100
C147        C  0.61580174  0.69929859  0.31724031     0.90200
C148        C  0.60662740  0.76770636  0.21335537     0.90300
C149        C  0.48930847  0.44800036  0.48850727     0.82700
N150        N  0.46914502  0.44139957  0.45662875    -0.75600
C151        C  0.44064900  0.43888718  0.46194354     0.85100
N152        N  0.43175457  0.44224931  0.49935796    -0.75600
C153        C  0.45727953  0.44812262  0.03468212     0.85200
N154        N  0.48860280  0.45573040  0.03007150    -0.77300
C155        C  0.61459742  0.57674020  0.01698937     0.82700
N156        N  0.61027414  0.58913893  0.05089670    -0.75600
C157        C  0.61416448  0.61854276  0.04944213     0.85100
N158        N  0.62215750  0.63555560  0.01400969    -0.75600
C159        C  0.63487191  0.63344063  0.47812724     0.85200
N160        N  0.63429872  0.60592488  0.48067543    -0.77300
C161        C  0.60343040  0.36886630  0.50796902     0.82700
N162        N  0.58006972  0.33377143  0.04402811    -0.75600
C163        C  0.57800252  0.30555086  0.03919836     0.85100
N164        N  0.58925215  0.30682928  0.50031182    -0.75600
C165        C  0.58864636  0.32233432  0.46734002     0.85200
N166        N  0.59556474  0.35330163  0.47111245    -0.77300
C167        C  0.75819260  0.48282431  0.44119508     0.82700
N168        N  0.72770747  0.47696309  0.44124564    -0.75600
C169        C  0.71548591  0.48083163  0.47571074     0.85100
N170        N  0.74377462  0.49900262  0.00592781    -0.75600
C171        C  0.77306205  0.50254919  0.00820247     0.85200
N172        N  0.77648263  0.49227443  0.47572025    -0.77300
C173        C  0.57976587  0.47432121  0.49858649     0.04700
C174        C  0.61259300  0.50686389  0.50277630     0.04700
C175        C  0.64191432  0.50891986  0.50569470    -0.15800
C176        C  0.63928884  0.47935805  0.50140952     0.04700
C177        C  0.60662408  0.44709823  0.49319588     0.04700
C178        C  0.57719705  0.44493575  0.49236089    -0.15800
H179        H  0.55197470  0.41991752  0.48854945     0.06800
H180        H  0.66723117  0.53387352  0.50926190     0.06800
C181        C  0.68221623  0.47424133  0.47459512    -0.14000
C182        C  0.67153740  0.48387030  0.50446333    -0.29100
H183        H  0.66666435  0.46239974  0.44757844     0.15100
H184        H  0.67710225  0.46487029  0.01422847     0.15600
C185        C  0.61092452  0.40240080  0.51323508    -0.14000
C186        C  0.60164575  0.41487842  0.48601978    -0.29100
H187        H  0.57622958  0.38529678  0.04385775     0.15100
H188        H  0.58708872  0.39958130  0.45959527     0.15600
C189        C  0.63888864  0.56739075  0.52050679    -0.14000
C190        C  0.61626805  0.53865287  0.49911569    -0.29100
H191        H  0.59937960  0.52984712  0.04746053     0.15100
H192        H  0.59862818  0.53780914  0.47908028     0.15600
C193        C  0.52011673  0.45057622  0.48182114    -0.14000
C194        C  0.54814815  0.47075232  0.50493992    -0.29100
H195        H  0.52054777  0.43725768  0.45602107     0.15100
H196        H  0.53680912  0.44949539  0.04001398     0.15600
C197        C  0.62914256  0.64287544  0.44019027    -0.16000
C198        C  0.62511460  0.65300971  0.40968963     0.08000
C199        C  0.62122267  0.66716334  0.37560172     0.09900
C200        C  0.61849358  0.68096472  0.34803413    -0.16900
C201        C  0.60605752  0.67635182  0.17655088    -0.16000
C202        C  0.60609600  0.66083382  0.14857864     0.08000
C203        C  0.60768637  0.64445115  0.11490189     0.09900
C204        C  0.61014908  0.63190468  0.08536728    -0.16900
C205        C  0.82066066  0.48695524  0.13888647    -0.16000
C206        C  0.80785886  0.49053588  0.11093666     0.08000
C207        C  0.79393386  0.49426177  0.07652819     0.09900
C208        C  0.78342075  0.49765089  0.04593984    -0.16900
C209        C  0.81174621  0.47225649  0.31112335    -0.16000
C210        C  0.79746642  0.47350370  0.33971865     0.08000
C211        C  0.78259352  0.47605833  0.37437565     0.09900
C212        C  0.77104863  0.47891420  0.40468158    -0.16900
C213        C  0.55934299  0.24636639  0.33941294    -0.16000
C214        C  0.56625990  0.26675920  0.36560618     0.08000
C215        C  0.57414287  0.28883203  0.39851734     0.09900
C216        C  0.58078842  0.30561516  0.42873130    -0.16900
C217        C  0.57187207  0.28516555  0.07351971    -0.16000
C218        C  0.56702418  0.26878305  0.10306256     0.08000
C219        C  0.56130903  0.24991735  0.13792928     0.09900
C220        C  0.55598416  0.23336062  0.16749418    -0.16900
C221        C  0.91151348  0.45634664  0.30703324    -0.16000
C222        C  0.92407724  0.45212195  0.33461954     0.08000
C223        C  0.93799225  0.44799246  0.36864417     0.09900
C224        C  0.94915251  0.44528295  0.39908307    -0.16900
C225        C  0.92075656  0.47200973  0.13512377    -0.16000
C226        C  0.93536982  0.47171739  0.10619346     0.08000
C227        C  0.95034620  0.47022317  0.07088899     0.09900
C228        C  0.96120264  0.46739974  0.03992221    -0.16900
C229        C  0.00977423  0.42124631  0.96817761    -0.14000
C230        C  0.02491293  0.41521497  0.50871428    -0.29100
H231        H  0.01042679  0.40394443  0.44772097     0.15100
H232        H  0.02489491  0.43150525  0.02939191     0.15600
C233        C  0.96345924  0.31878278  0.46151594    -0.14000
C234        C  0.98229442  0.34095685  0.49165635    -0.29100
H235        H  0.97623163  0.31684384  0.43622075     0.15100
H236        H  0.96648945  0.34901413  0.00371493     0.15600
C237        C  0.14823552  0.42888006  0.99969078    -0.14000
C238        C  0.12302746  0.42227760  0.02405527    -0.29100
H239        H  0.14558911  0.41963741  0.47123718     0.15100
H240        H  0.12857312  0.43126928  0.05511898     0.15600
C241        C  0.08579274  0.35440479  0.98061637    -0.14000
C242        C  0.10091584  0.34943306  0.00941343    -0.29100
H243        H  0.09199784  0.34884183  0.45350388     0.15100
H244        H  0.09689695  0.35252873  0.04087899     0.15600
C245        C  0.27989414  0.52304096  0.20399799    -0.16000
C246        C  0.26474484  0.50565243  0.17450799     0.08000
C247        C  0.24820214  0.48839274  0.13799350     0.09900
C248        C  0.23606151  0.47638764  0.10517821    -0.16900
C249        C  0.26679886  0.47172623  0.46603067    -0.16000
C250        C  0.28440268  0.48460437  0.43611738     0.08000
C251        C  0.30018430  0.50381979  0.40051977     0.09900
C252        C  0.30963187  0.52273338  0.37207044    -0.16900
C253        C  0.44025498  0.43889243  0.07347176    -0.16000
C254        C  0.42278613  0.43078844  0.10362290     0.08000
C255        C  0.39973663  0.42112123  0.13635419     0.09900
C256        C  0.37862160  0.41290679  0.16242832    -0.16900
C257        C  0.36676987  0.41360382  0.33428842    -0.16000
C258        C  0.38390646  0.42037227  0.36373948     0.08000
C259        C  0.40329727  0.42722076  0.39849025     0.09900
C260        C  0.41999068  0.43259301  0.42788382    -0.16900
C261        C  0.23236644  0.36088004  0.32294224    -0.16000
C262        C  0.21395191  0.35560975  0.35111166     0.08000
C263        C  0.19546373  0.35149902  0.38653524     0.09900
C264        C  0.18268680  0.34969904  0.41868317    -0.16900
C265        C  0.24144320  0.35832415  0.14976505    -0.16000
C266        C  0.22341247  0.35133340  0.12114414     0.08000
C267        C  0.20332574  0.34530350  0.08741840     0.09900
C268        C  0.18721122  0.34260016  0.05871147    -0.16900
C269        C  0.56783272  0.01599159  0.01501011    -0.14000
C270        C  0.56386980  0.99140282  0.99228857    -0.29100
H271        H  0.55807086  0.00995006  0.04589024     0.15100
H272        H  0.57541546  0.99847776  0.44661595     0.15600
C273        C  0.51173727  0.10234340  0.17997197    -0.16000
C274        C  0.50616328  0.08409408  0.15170869     0.08000
C275        C  0.50103900  0.06561116  0.11611211     0.09900
C276        C  0.49796885  0.05241698  0.08396843    -0.16900
C277        C  0.51409731  0.11316913  0.35322698    -0.16000
C278        C  0.50843054  0.09597807  0.38227661     0.08000
C279        C  0.50282126  0.07656615  0.41653746     0.09900
C280        C  0.49930059  0.06039456  0.44565457    -0.16900
C281        C  0.49149081  0.95319783  0.02352488    -0.14000
C282        C  0.49097618  0.97038734  0.99310308    -0.29100
H283        H  0.48527240  0.95572758  0.05412344     0.15100
H284        H  0.49504281  0.96159907  0.46460942     0.15600
C285        C  0.41064043  0.72036222  0.47181063    -0.16000
C286        C  0.40361165  0.70379346  0.44133200     0.08000
C287        C  0.39292899  0.68279868  0.40659389     0.09900
C288        C  0.38116992  0.66330186  0.37817775    -0.16900
C289        C  0.38023438  0.71553003  0.11605098    -0.16000
C290        C  0.36959689  0.69939327  0.14701036     0.08000
C291        C  0.35933128  0.67959746  0.18233040     0.09900
C292        C  0.35207311  0.66122420  0.21070965    -0.16900
C293        C  0.46723075  0.82929803  0.54422240    -0.14000
C294        C  0.47904551  0.84615274  0.02396716    -0.29100
H295        H  0.44417723  0.83689584  0.06942759     0.15100
H296        H  0.49599633  0.83515779  0.49335625     0.15600
C297        C  0.60400509  0.78657468  0.18330462    -0.16000
C298        C  0.60222236  0.80162871  0.15649850     0.08000
C299        C  0.60098830  0.81821262  0.12299041     0.09900
C300        C  0.60105028  0.83122061  0.09238201    -0.16900
C301        C  0.61712344  0.79028630  0.35443055    -0.16000
C302        C  0.61863578  0.80585939  0.38340864     0.08000
C303        C  0.61916712  0.82207945  0.41869854     0.09900
C304        C  0.61777253  0.83384439  0.44973752    -0.16900
C305        C  0.58002394  0.89460841  0.00386286    -0.14000
C306        C  0.55398285  0.88826337  0.02615570    -0.29100
H307        H  0.58945525  0.91136032  0.97766436     0.15100
H308        H  0.57775551  0.89427096  0.46322474     0.15600
C309        C  0.85168028  0.26516221  0.02693787    -0.16000
C310        C  0.83565818  0.25913749  0.05782456     0.08000
C311        C  0.81587212  0.25000673  0.09363042     0.09900
C312        C  0.79761924  0.23995505  0.12332153    -0.16900
C313        C  0.79885239  0.21802828  0.29410629    -0.16000
C314        C  0.81801155  0.22647545  0.32199480     0.08000
C315        C  0.83888074  0.23831911  0.35660165     0.09900
C316        C  0.85536940  0.24967740  0.38725080    -0.16900
C317        C  0.61346581  0.10543332  0.40225965    -0.16000
C318        C  0.62546825  0.11864984  0.36972202     0.08000
C319        C  0.64296792  0.13571170  0.33334113     0.09900
C320        C  0.66060030  0.15043863  0.30369192    -0.16900
C321        C  0.60764141  0.13056537  0.04182441    -0.16000
C322        C  0.62054853  0.14891839  0.07096287     0.08000
C323        C  0.63998318  0.16501830  0.10614641     0.09900
C324        C  0.65904516  0.17444817  0.13429803    -0.16900
O325        O  0.68653984  0.14136948  0.74812106    -0.72000
O326        O  0.75302077  0.18730968  0.66207061    -0.72000
O327        O  0.75503979  0.17501311  0.74126223    -0.72000
O328        O  0.68446816  0.15397747  0.66934505    -0.72100
O329        O  0.69526831  0.20345321  0.68580862    -0.72000
O330        O  0.76585720  0.22454569  0.75741525    -0.72000
O331        O  0.76396601  0.23688397  0.67820116    -0.72000
O332        O  0.69733037  0.19078660  0.76481858    -0.72000
Ni333      Ni  0.71936532  0.16265068  0.70454069     1.25400
Ni334      Ni  0.73101438  0.21571674  0.72213200     1.25400
C335        C  0.68139717  0.15860195  0.77083606     0.90200
C336        C  0.76926501  0.21949085  0.65592245     0.90100
C337        C  0.77158165  0.20310255  0.76157706     0.90200
C338        C  0.67847776  0.17528991  0.66573131     0.90300
C339        C  0.61628237  0.84790860  0.55799937     0.82700
N340        N  0.59945786  0.86118340  0.55869445    -0.75600
C341        C  0.58985413  0.86680255  0.52359022     0.85100
N342        N  0.60628707  0.86969337  0.97930836    -0.75600
C343        C  0.61712110  0.85099362  0.98450124     0.85200
N344        N  0.62288837  0.83957881  0.52224228    -0.77300
C345        C  0.41004258  0.73708614  0.01114773     0.82700
N346        N  0.42846065  0.77184096  0.01151408    -0.75600
C347        C  0.43018810  0.78801240  0.04588075     0.85100
N348        N  0.42790765  0.77349574  0.57821891    -0.75600
C349        C  0.40651255  0.73849184  0.57813044     0.85200
N350        N  0.39370199  0.71854166  0.04523688    -0.77300
C351        C  0.50232638  0.04949741  0.97386897     0.82100
N352        N  0.49701623  0.01959032  0.96818977    -0.75600
C353        C  0.49373249  0.99576292  0.50508056     0.85100
N354        N  0.49923396  0.00899297  0.54302737    -0.75600
C355        C  0.50330730  0.03834101  0.54903996     0.85200
N356        N  0.50263972  0.05479536  0.51721940    -0.77300
C357        C  0.60117152  0.08988196  0.94620864     0.82700
N358        N  0.58933771  0.05831530  0.95938089    -0.75600
C359        C  0.58174842  0.05010992  0.99924144     0.85100
N360        N  0.58853857  0.07132934  0.52056443    -0.75600
C361        C  0.59788265  0.10246952  0.51079335     0.85200
N362        N  0.60587379  0.11329984  0.97285645    -0.77300
C363        C  0.51336226  0.88627993  0.51273110     0.04700
C364        C  0.54675079  0.90582833  0.49516585     0.04700
C365        C  0.56361386  0.93991939  0.48302197    -0.15800
C366        C  0.54922522  0.95600525  0.49160362     0.04700
C367        C  0.51708842  0.93731726  0.51263466     0.04700
C368        C  0.49934322  0.90265685  0.52249199    -0.15800
H369        H  0.47384076  0.88816558  0.53610207     0.06800
H370        H  0.58880318  0.95451463  0.46847579     0.06800
O371        O  0.34806356  0.40139849  0.71248416    -0.72000
O372        O  0.27638002  0.37542743  0.78790780    -0.72000
O373        O  0.28176590  0.37560303  0.70634876    -0.72000
O374        O  0.34299949  0.40139421  0.79415137    -0.72100
O375        O  0.36037997  0.45500745  0.79229190    -0.72000
O376        O  0.29903596  0.42917910  0.70437437    -0.72000
O377        O  0.29361193  0.42897414  0.78611973    -0.72000
O378        O  0.36545041  0.45500192  0.71044831    -0.72000
Ni379      Ni  0.31169080  0.38655423  0.75036816     1.25400
Ni380      Ni  0.33025175  0.44398896  0.74831356     1.25400
C381        C  0.36802784  0.43222043  0.69856773     0.90200
C382        C  0.27326108  0.39790031  0.79933554     0.90100
C383        C  0.28081806  0.39831397  0.69065470     0.90200
C384        C  0.36164897  0.43236837  0.80756593     0.90300
O385        O  0.37328852  0.63421966  0.74716451    -0.72000
O386        O  0.34733277  0.56370328  0.82264151    -0.72000
O387        O  0.33694860  0.56518287  0.74256578    -0.72000
O388        O  0.38334801  0.63282419  0.82739332    -0.72100
O389        O  0.33454166  0.62446385  0.84092471    -0.72000
O390        O  0.28836950  0.55709321  0.75678706    -0.72000
O391        O  0.29867361  0.55557253  0.83652386    -0.72000
O392        O  0.32455826  0.62598678  0.76088922    -0.72000
Ni393      Ni  0.36201480  0.59929895  0.78444220     1.25400
Ni394      Ni  0.30981084  0.59048128  0.79932479     1.25400
C395        C  0.35297223  0.64118535  0.74119554     0.90200
C396        C  0.31885093  0.54836643  0.84215555     0.90100
C397        C  0.30513505  0.55043251  0.73560758     0.90200
C398        C  0.36629968  0.63944764  0.84817614     0.90300
C399        C  0.16809451  0.35148595  0.95581602     0.82700
N400        N  0.19201158  0.35513506  0.49053195    -0.75600
C401        C  0.18302791  0.35660979  0.52876356     0.85100
N402        N  0.15410081  0.35298856  0.53564482    -0.75600
C403        C  0.13377728  0.34770837  0.50462668     0.85200
N404        N  0.14062378  0.35070110  0.96231861    -0.77300
C405        C  0.23866592  0.46295547  0.99700568     0.82700
N406        N  0.20632127  0.44945288  0.98591357    -0.75600
C407        C  0.18700902  0.44263263  0.51571054     0.85100
N408        N  0.19726372  0.45152261  0.55480988    -0.75600
C409        C  0.23010536  0.46537882  0.56507204     0.85200
N410        N  0.24821562  0.47146547  0.03610813    -0.77300
C411        C  0.87250296  0.27386932  0.49398639     0.82700
N412        N  0.85259946  0.25393099  0.95588763    -0.75600
C413        C  0.87007562  0.25817266  0.92156811     0.85100
N414        N  0.90511827  0.27910404  0.92147891    -0.75600
C415        C  0.92283230  0.29612851  0.95558798     0.85200
N416        N  0.90742433  0.29321071  0.49499829    -0.77300
C417        C  0.97302919  0.46201040  0.93183990     0.82700
N418        N  0.98778572  0.44659223  0.93214067    -0.75600
C419        C  0.99149308  0.42968764  0.47431689     0.85100
N420        N  0.98361311  0.43828426  0.50893726    -0.75600
C421        C  0.96469735  0.44921406  0.50748871     0.85200
N422        N  0.96484174  0.46931532  0.96717287    -0.77300
C423        C  0.07231095  0.36785724  0.49525447     0.04700
C424        C  0.09061511  0.40079462  0.51409856     0.04700
C425        C  0.07073245  0.41705077  0.01463192    -0.15800
C426        C  0.03696457  0.39981586  0.00107506     0.04700
C427        C  0.01781316  0.36589232  0.98572987     0.04700
C428        C  0.03450936  0.35175181  0.97896832    -0.15800
H429        H  0.02031054  0.32592479  0.96674174     0.06800
H430        H  0.08492955  0.44261469  0.02774319     0.06800
O431        O  0.57545820  0.16796032  0.79878438    -0.72000
O432        O  0.59912279  0.22840758  0.71015928    -0.72000
O433        O  0.59882246  0.23343570  0.79183451    -0.72000
O434        O  0.57573078  0.16266105  0.71726990    -0.72100
O435        O  0.52127875  0.14322470  0.71564655    -0.72000
O436        O  0.54434640  0.21392917  0.79010855    -0.72000
O437        O  0.54462380  0.20885148  0.70859656    -0.72000
O438        O  0.52100578  0.14854813  0.79700897    -0.72000
Ni439      Ni  0.58926432  0.19883323  0.75450477     1.25400
Ni440      Ni  0.53087449  0.17795467  0.75270839     1.25400
C441        C  0.54443313  0.14867581  0.81256574     0.90200
C442        C  0.57567981  0.22847531  0.69497406     0.90100
C443        C  0.57518676  0.23483263  0.80364007     0.90200
C444        C  0.54469690  0.14134377  0.70439361     0.90300
O445        O  0.88422499  0.53502702  0.67713580    -0.72000
O446        O  0.93099679  0.52315955  0.75741967    -0.72000
O447        O  0.92606048  0.51778575  0.67581268    -0.72000
O448        O  0.88941268  0.54059895  0.75891047    -0.72100
O449        O  0.84325356  0.48481217  0.76444285    -0.72000
O450        O  0.87985633  0.46203199  0.68148132    -0.72000
O451        O  0.88471734  0.46744170  0.76290375    -0.72000
O452        O  0.83815311  0.47926307  0.68299798    -0.72000
Ni453      Ni  0.90934677  0.53117885  0.71707826     1.25400
Ni454      Ni  0.85983938  0.47141915  0.72313478     1.25400
C455        C  0.85354914  0.50893639  0.66687239     0.90200
C456        C  0.91534180  0.49333147  0.77337918     0.90100
C457        C  0.90895712  0.48622281  0.66513591     0.90200
C458        C  0.86051358  0.51628888  0.77554703     0.90300
O459        O  0.61282516  0.75747369  0.81269046    -0.72000
O460        O  0.61777507  0.70862191  0.72725765    -0.72000
O461        O  0.61601539  0.70541297  0.80904808    -0.72000
O462        O  0.61422833  0.76030502  0.73097208    -0.72100
O463        O  0.67191953  0.79889431  0.73174201    -0.72000
O464        O  0.67370087  0.74382507  0.81035214    -0.72000
O465        O  0.67548349  0.74712752  0.72844425    -0.72000
O466        O  0.67053721  0.79598982  0.81361764    -0.72000
Ni467      Ni  0.61314668  0.73156823  0.76999342     1.25400
Ni468      Ni  0.67499921  0.77284420  0.77111706     1.25400
C469        C  0.64091552  0.78464953  0.82712221     0.90200
C470        C  0.64747125  0.72024201  0.71357326     0.90100
C471        C  0.64504864  0.71567863  0.82263827     0.90200
C472        C  0.64269382  0.78828319  0.71823167     0.90300
C473        C  0.50413551  0.46446101  0.99294229     0.82700
N474        N  0.48810031  0.46534947  0.96077295    -0.75600
C475        C  0.45679172  0.45749872  0.96538073     0.85100
N476        N  0.44142175  0.44886736  0.00226264    -0.75600
C477        C  0.45160967  0.44852472  0.53150162     0.85200
N478        N  0.48049902  0.45156519  0.52609888    -0.77300
C479        C  0.64035895  0.59765296  0.51665623     0.82700
N480        N  0.64670253  0.61680993  0.54989274    -0.75600
C481        C  0.64671244  0.64388847  0.54747633     0.85100
N482        N  0.64079317  0.65221184  0.51165444    -0.75600
C483        C  0.62638116  0.62329115  0.97995270     0.85200
N484        N  0.62263514  0.59388325  0.98137061    -0.77300
C485        C  0.58677199  0.35380307  0.01184099     0.82700
N486        N  0.60421760  0.35322869  0.54075288    -0.75600
C487        C  0.59702181  0.32221731  0.53695962     0.85100
N488        N  0.58200672  0.29686160  0.00204770    -0.75600
C489        C  0.58839762  0.31662748  0.96965853     0.85200
N490        N  0.59091835  0.34516936  0.97452912    -0.77300
C491        C  0.78380374  0.51651410  0.93919932     0.82700
N492        N  0.75477541  0.51335488  0.93702168    -0.75600
C493        C  0.73457710  0.50446094  0.97026439     0.85100
N494        N  0.73390308  0.49036560  0.51043407    -0.75600
C495        C  0.76442250  0.49607870  0.51036149     0.85200
N496        N  0.79292842  0.51109416  0.97473623    -0.77300
C497        C  0.58382228  0.46935041  0.00432922     0.04700
C498        C  0.61547188  0.50183387  0.99341517     0.04700
C499        C  0.64510292  0.50473490  0.98696212    -0.15800
C500        C  0.64374941  0.47591937  0.99077112     0.04700
C501        C  0.61173520  0.44322851  0.99824193     0.04700
C502        C  0.58232727  0.44039750  0.00621053    -0.15800
H503        H  0.55769311  0.41524027  0.01218912     0.06800
H504        H  0.66968917  0.52994369  0.98102443     0.06800
C505        C  0.70298151  0.50094988  0.96723486    -0.14000
C506        C  0.67605224  0.48027270  0.99230189    -0.29100
H507        H  0.70119172  0.51426303  0.94298660     0.15100
H508        H  0.68825203  0.49829287  0.53003923     0.15600
C509        C  0.58913924  0.38445783  0.01780842    -0.14000
C510        C  0.60853847  0.41180924  0.99330703    -0.29100
H511        H  0.62277919  0.41640344  0.54127156     0.15100
H512        H  0.62373570  0.41182132  0.96946685     0.15600
C513        C  0.60994882  0.54456073  0.01957071    -0.14000
C514        C  0.61924008  0.53360383  0.98961893    -0.29100
H515        H  0.65447362  0.56770580  0.54343960     0.15100
H516        H  0.63235329  0.54952563  0.96295707     0.15600
C517        C  0.53793622  0.47255363  0.98648209    -0.14000
C518        C  0.55143351  0.46393086  0.01304245    -0.29100
H519        H  0.55127802  0.48428806  0.95794194     0.15100
H520        H  0.54863262  0.48643494  0.52837819     0.15600
C521        C  0.63384372  0.64119943  0.94248260    -0.16000
C522        C  0.63888990  0.65767052  0.91274093     0.08000
C523        C  0.64317352  0.67788976  0.87975110     0.09900
C524        C  0.64515101  0.69532089  0.85296365    -0.16900
C525        C  0.64943473  0.70343320  0.67989322    -0.16000
C526        C  0.65085517  0.69045824  0.65007116     0.08000
C527        C  0.65149576  0.67558085  0.61419262     0.09900
C528        C  0.65046804  0.66203224  0.58340878    -0.16900
C529        C  0.83597397  0.51252080  0.63602983    -0.16000
C530        C  0.81987231  0.51253639  0.60912528     0.08000
C531        C  0.80015402  0.50942649  0.57635247     0.09900
C532        C  0.78337098  0.50443967  0.54705926    -0.16900
C533        C  0.84742990  0.52403657  0.80832027    -0.16000
C534        C  0.83513013  0.52719562  0.83762018     0.08000
C535        C  0.81901741  0.52692531  0.87300705     0.09900
C536        C  0.80373286  0.52362181  0.90342179    -0.16900
C537        C  0.58293435  0.25931275  0.83415022    -0.16000
C538        C  0.58750729  0.27703338  0.86248833     0.08000
C539        C  0.59044540  0.29436741  0.89813526     0.09900
C540        C  0.59075539  0.30619055  0.93016248    -0.16900
C541        C  0.59636216  0.30500019  0.57183692    -0.16000
C542        C  0.59416077  0.28910174  0.60061064     0.08000
C543        C  0.58968169  0.26907099  0.63378591     0.09900
C544        C  0.58420352  0.25097324  0.66183879    -0.16900
C545        C  0.93208788  0.48867860  0.80424122    -0.16000
C546        C  0.94415437  0.48339341  0.83137517     0.08000
C547        C  0.95621667  0.47616332  0.86460026     0.09900
C548        C  0.96484097  0.46964058  0.89438721    -0.16900
C549        C  0.92257686  0.47782477  0.63380010    -0.16000
C550        C  0.93364139  0.47108125  0.60656977     0.08000
C551        C  0.94585045  0.46352129  0.57344450     0.09900
C552        C  0.95524954  0.45712921  0.54395175    -0.16900
C553        C  0.00996751  0.41555850  0.47535510    -0.14000
C554        C  0.02272070  0.41837768  0.00179833    -0.29100
H555        H  0.01022670  0.41021589  0.94000809     0.15100
H556        H  0.02696080  0.42868737  0.53589942     0.15600
C557        C  0.96090290  0.31868567  0.95518616    -0.14000
C558        C  0.97965638  0.34400467  0.98246690    -0.29100
H559        H  0.97360838  0.31489143  0.93170738     0.15100
H560        H  0.96944382  0.34454560  0.51521722     0.15600
C561        C  0.15183167  0.42745357  0.50267215    -0.14000
C562        C  0.12700387  0.42105718  0.52763452    -0.29100
H563        H  0.14259185  0.42150706  0.96807504     0.15100
H564        H  0.13313877  0.43044293  0.55853105     0.15600
C565        C  0.08923783  0.35261220  0.48514402    -0.14000
C566        C  0.10536959  0.34870689  0.51365930    -0.29100
H567        H  0.08838668  0.35023726  0.94906920     0.15100
H568        H  0.10166789  0.35223910  0.54508917     0.15600
C569        C  0.28792759  0.52676913  0.70244466    -0.16000
C570        C  0.27277736  0.50887748  0.67326726     0.08000
C571        C  0.25545111  0.49051333  0.63753175     0.09900
C572        C  0.24229353  0.47738914  0.60541718    -0.16900
C573        C  0.26375134  0.47320607  0.96612035    -0.16000
C574        C  0.28189889  0.48567599  0.93653636     0.08000
C575        C  0.29878807  0.50446293  0.90094776     0.09900
C576        C  0.30957863  0.52341076  0.87229323    -0.16900
C577        C  0.44081175  0.45014946  0.57127700    -0.16000
C578        C  0.42851531  0.44928640  0.60334225     0.08000
C579        C  0.41071463  0.44584108  0.63904514     0.09900
C580        C  0.39276043  0.44082713  0.66757468    -0.16900
C581        C  0.38433039  0.44173642  0.84066414    -0.16000
C582        C  0.40258311  0.44810886  0.86883721     0.08000
C583        C  0.42284863  0.45362135  0.90218259     0.09900
C584        C  0.43904208  0.45647891  0.93093481    -0.16900
C585        C  0.24663009  0.38799019  0.82816652    -0.16000
C586        C  0.22508268  0.37891870  0.85392908     0.08000
C587        C  0.20164937  0.36813772  0.88644366     0.09900
C588        C  0.18426158  0.35965679  0.91667873    -0.16900
C589        C  0.25950421  0.38911808  0.65618772    -0.16000
C590        C  0.24246444  0.38125085  0.62631076     0.08000
C591        C  0.22268240  0.37201122  0.59119018     0.09900
C592        C  0.20513997  0.36445170  0.56187803    -0.16900
C593        C  0.57480798  0.01650332  0.50419594    -0.14000
C594        C  0.56823162  0.99226957  0.47825853    -0.29100
H595        H  0.56885951  0.01005054  0.53603585     0.15100
H596        H  0.57497829  0.99732493  0.96209495     0.15600
C597        C  0.53597157  0.11501868  0.67616599    -0.16000
C598        C  0.52811705  0.09378453  0.65079195     0.08000
C599        C  0.51868440  0.07081428  0.61850362     0.09900
C600        C  0.51102459  0.05388344  0.58825817    -0.16900
C601        C  0.53573479  0.12711153  0.84672823    -0.16000
C602        C  0.52790476  0.10945753  0.87611257     0.08000
C603        C  0.51846095  0.08894643  0.91070927     0.09900
C604        C  0.51062120  0.07116593  0.93996381    -0.16900
C605        C  0.50155525  0.95353551  0.52436503    -0.14000
C606        C  0.49444629  0.96728641  0.49621106    -0.29100
H607        H  0.50087114  0.95841359  0.55621339     0.15100
H608        H  0.49685857  0.96701611  0.96268347     0.15600
C609        C  0.40701146  0.71967860  0.97459175    -0.16000
C610        C  0.40203956  0.70348605  0.94438431     0.08000
C611        C  0.39313888  0.68281822  0.90967783     0.09900
C612        C  0.38263697  0.66378478  0.88088395    -0.16900
C613        C  0.39140922  0.71993087  0.61522564    -0.16000
C614        C  0.38060990  0.70393257  0.64635802     0.08000
C615        C  0.36984291  0.68409119  0.68184635     0.09900
C616        C  0.36177143  0.66556351  0.71041621    -0.16900
C617        C  0.45081230  0.82574315  0.04723764    -0.14000
C618        C  0.49172779  0.84816333  0.51579060    -0.29100
H619        H  0.46432810  0.84188328  0.56874376     0.15100
H620        H  0.48689967  0.83449207  0.00451828     0.15600
C621        C  0.64151547  0.80740273  0.68715913    -0.16000
C622        C  0.63816313  0.82048304  0.65933646     0.08000
C623        C  0.63202770  0.83268968  0.62522673     0.09900
C624        C  0.62539425  0.84078435  0.59505253    -0.16900
C625        C  0.63918291  0.80257194  0.85958421    -0.16000
C626        C  0.63712171  0.81661637  0.88767140     0.08000
C627        C  0.63306258  0.83123145  0.92125158     0.09900
C628        C  0.62732990  0.84162163  0.95024155    -0.16900
C629        C  0.57059592  0.88010520  0.52479983    -0.14000
C630        C  0.56563825  0.89203368  0.49185501    -0.29100
H631        H  0.56056973  0.88064496  0.55385176     0.15100
H632        H  0.54281053  0.86908384  0.05004885     0.15600
C633        C  0.85315504  0.26733321  0.53039608    -0.16000
C634        C  0.83548466  0.25956326  0.56026890     0.08000
C635        C  0.81346072  0.24800149  0.59450112     0.09900
C636        C  0.79375975  0.23613706  0.62301269    -0.16900
C637        C  0.79616249  0.21043509  0.79107447    -0.16000
C638        C  0.81512080  0.21850518  0.81903234     0.08000
C639        C  0.83542187  0.23019090  0.85406219     0.09900
C640        C  0.85159182  0.24201061  0.88485897    -0.16900
C641        C  0.61172430  0.09994224  0.90489420    -0.16000
C642        C  0.62368213  0.11140726  0.87171409     0.08000
C643        C  0.64096275  0.12719069  0.83474105     0.09900
C644        C  0.65820665  0.14156512  0.80471869    -0.16900
C645        C  0.60496870  0.12552479  0.54267098    -0.16000
C646        C  0.61588105  0.14245292  0.57305858     0.08000
C647        C  0.63412841  0.15810447  0.60903663     0.09900
C648        C  0.65323884  0.16769099  0.63716522    -0.16900
loop_ 
_geom_bond_atom_site_label_1 
_geom_bond_atom_site_label_2 
_geom_bond_distance 
_geom_bond_site_symmetry_2 
_ccdc_geom_bond_type 
O1           Ni9   1.911       .  S
O1           C11   1.278       .  A
O2           Ni9   1.913       .  S
O2           C12   1.279       .  A
O3           Ni9   1.920       .  S
O3           C13   1.280       .  A
O4           Ni9   1.916       .  S
O4           C14   1.281       .  A
O5          Ni10   1.912       .  S
O5           C14   1.277       .  A
O6          Ni10   1.912       .  S
O6           C13   1.279       .  A
O7          Ni10   1.926       .  S
O7           C12   1.282       .  A
O8          Ni10   1.924       .  S
O8           C11   1.281       .  A
Ni9         Ni10   2.395       .  S
C11         C320   1.434       .  S
C12         C312   1.437       .  S
C13         C313   1.433       .  S
C14         C324   1.429       .  S
C15         C300   1.438       .  S
C15          N16   1.359       .  A
C15          N20   1.355       .  A
N16          C17   1.364       .  A
C17         N342   1.356   1_554  A
C17         C305   1.474       .  S
N18          C19   1.355       .  A
N18         C341   1.358       .  A
C19         C304   1.431       .  S
C19         N344   1.356       .  A
N20         C343   1.355   1_554  A
C21         C285   1.437       .  S
C21          N22   1.356       .  A
C21          N26   1.356       .  A
N22          C23   1.361       .  A
C23         N348   1.356       .  A
C23         C293   1.472       .  S
N24          C25   1.354       .  A
N24         C347   1.355       .  A
C25         C289   1.428       .  S
C25         N350   1.356       .  A
N26         C349   1.357       .  A
C27         C280   1.428       .  S
C27          N28   1.352       .  A
C27         N356   1.353       .  A
N28         C353   1.355   1_545  A
C29          N30   1.363   1_565  A
C29         N352   1.355   1_564  A
C29         C282   1.474   1_554  S
N30          C31   1.359       .  A
C31         C276   1.437       .  S
C31          N32   1.357       .  A
N32         C351   1.355   1_554  A
C33         C317   1.435       .  S
C33          N34   1.361       .  A
C33          N38   1.358       .  A
N34          C35   1.361       .  A
C35         N360   1.354       .  A
C35         C593   1.472       .  S
N36          C37   1.352       .  A
N36         C359   1.353   1_554  A
C37         C321   1.427       .  S
C37         N362   1.355   1_554  A
N38         C361   1.354       .  A
C39         C294   1.481       .  S
C39          C40   1.410       .  A
C39          C44   1.403       .  A
C40         C306   1.485       .  S
C40          C41   1.404       .  A
C41          C42   1.401       .  A
C41          H46   1.084       .  S
C42         C270   1.483   1_554  S
C42          C43   1.421       .  A
C43         C281   1.480       .  S
C43          C44   1.398       .  A
C44          H45   1.084       .  S
O47         Ni55   1.924       .  S
O47          C57   1.281       .  A
O48         Ni55   1.924       .  S
O48          C58   1.281       .  A
O49         Ni55   1.914       .  S
O49          C59   1.279       .  A
O50         Ni55   1.913       .  S
O50          C60   1.279       .  A
O51         Ni56   1.915       .  S
O51          C60   1.279       .  A
O52         Ni56   1.915       .  S
O52          C59   1.280       .  A
O53         Ni56   1.920       .  S
O53          C58   1.280       .  A
O54         Ni56   1.920       .  S
O54          C57   1.280       .  A
Ni55        Ni56   2.394       .  S
C57         C256   1.440       .  S
C58         C261   1.440       .  S
C59         C265   1.431       .  S
C60         C257   1.430       .  S
O61         Ni69   1.910       .  S
O61          C71   1.278       .  A
O62         Ni69   1.913       .  S
O62          C72   1.278       .  A
O63         Ni69   1.924       .  S
O63          C73   1.281       .  A
O64         Ni69   1.925       .  S
O64          C74   1.281       .  A
O65         Ni70   1.913       .  S
O65          C74   1.279       .  A
O66         Ni70   1.913       .  S
O66          C73   1.278       .  A
O67         Ni70   1.913       .  S
O67          C72   1.280       .  A
O68         Ni70   1.914       .  S
O68          C71   1.279       .  A
Ni69        Ni70   2.395       .  S
C71         C292   1.427       .  S
C72         C252   1.429       .  S
C73         C245   1.436       .  S
C74         C288   1.436       .  S
C75         C264   1.440       .  S
C75          N80   1.362       .  A
C75         N400   1.358       .  A
N76          C77   1.354   1_556  A
N76         C399   1.356       .  A
C77         C268   1.431       .  S
C77          N78   1.354       .  A
N78          C79   1.357       .  A
C79         N404   1.363   1_554  A
C79         C242   1.474       .  S
N80         C403   1.364       .  A
C81         C249   1.428       .  S
C81          N82   1.352       .  A
C81          N86   1.354       .  A
N82         C407   1.354       .  A
C83          N84   1.362       .  A
C83         N406   1.353   1_554  A
C83         C237   1.472   1_554  S
N84          C85   1.361       .  A
C85         C248   1.436       .  S
C85         N410   1.358       .  A
N86         C409   1.357       .  A
C87         C309   1.438   1_556  S
C87          N92   1.356       .  A
C87         N412   1.357       .  A
N88          C89   1.357       .  A
N88         C411   1.356       .  A
C89         C316   1.434       .  S
C89          N90   1.357       .  A
N90          C91   1.358       .  A
C91         N416   1.363       .  A
C91         C233   1.478       .  S
N92         C415   1.361       .  A
C93         C224   1.437       .  S
C93          N94   1.357       .  A
C93          N98   1.355       .  A
N94         C419   1.360       .  A
C95          N96   1.357   1_556  A
C95         N418   1.361       .  A
C95         C229   1.474   1_655  S
N96          C97   1.354       .  A
C97         C228   1.430       .  S
C97         N422   1.355   1_554  A
N98         C421   1.356       .  A
C99         C241   1.482       .  S
C99         C100   1.421   1_556  A
C99         C428   1.400       .  A
C100        C238   1.484       .  S
C100        C425   1.400       .  A
C101        C102   1.400       .  A
C101        C424   1.402       .  A
C101        H106   1.084       .  S
C102        C230   1.483       .  S
C102        C103   1.412       .  A
C103        C234   1.484   1_455  S
C103        C104   1.404       .  A
C104        C423   1.402       .  A
C104        H105   1.084       .  S
O107       Ni115   1.913       .  S
O107        C117   1.279       .  A
O108       Ni115   1.912       .  S
O108        C118   1.279       .  A
O109       Ni115   1.920       .  S
O109        C119   1.280       .  A
O110       Ni115   1.919       .  S
O110        C120   1.280       .  A
O111       Ni116   1.920       .  S
O111        C120   1.280       .  A
O112       Ni116   1.920       .  S
O112        C119   1.280       .  A
O113       Ni116   1.911       .  S
O113        C118   1.278       .  A
O114       Ni116   1.912       .  S
O114        C117   1.278       .  A
Ni115      Ni116   2.395       .  S
C117        C277   1.428       .  S
C118        C220   1.427       .  S
C119        C213   1.438       .  S
C120        C273   1.437       .  S
O121       Ni129   1.922       .  S
O121        C131   1.281       .  A
O122       Ni129   1.920       .  S
O122        C132   1.280       .  A
O123       Ni129   1.912       .  S
O123        C133   1.278       .  A
O124       Ni129   1.912       .  S
O124        C134   1.279       .  A
O125       Ni130   1.916       .  S
O125        C134   1.279       .  A
O126       Ni130   1.915       .  S
O126        C133   1.279       .  A
O127       Ni130   1.918       .  S
O127        C132   1.280       .  A
O128       Ni130   1.918       .  S
O128        C131   1.280       .  A
Ni129      Ni130   2.395       .  S
C131        C205   1.438       .  S
C132        C221   1.437       .  S
C133        C225   1.429       .  S
C134        C209   1.430       .  S
O135       Ni143   1.916       .  S
O135        C145   1.280       .  A
O136       Ni143   1.917       .  S
O136        C146   1.280       .  A
O137       Ni143   1.920       .  S
O137        C147   1.280       .  A
O138       Ni143   1.920       .  S
O138        C148   1.280       .  A
O139       Ni144   1.921       .  S
O139        C148   1.280       .  A
O140       Ni144   1.921       .  S
O140        C147   1.280       .  A
O141       Ni144   1.913       .  S
O141        C146   1.279       .  A
O142       Ni144   1.913       .  S
O142        C145   1.278       .  A
Ni143      Ni144   2.394       .  S
C145        C301   1.430       .  S
C146        C201   1.432       .  S
C147        C200   1.439       .  S
C148        C297   1.438       .  S
C149        N150   1.355       .  A
C149        N478   1.363       .  A
C149        C193   1.472       .  S
N150        C151   1.354       .  A
C151        C260   1.431       .  S
C151        N152   1.356       .  A
N152        C477   1.357       .  A
C153        C253   1.440       .  S
C153        N154   1.361       .  A
C153        N476   1.356       .  A
N154        C473   1.364   1_554  A
C155        N156   1.357       .  A
C155        N484   1.363   1_554  A
C155        C513   1.474       .  S
N156        C157   1.355       .  A
C157        C204   1.432       .  S
C157        N158   1.355       .  A
N158        C483   1.355   1_554  A
C159        C197   1.439       .  S
C159        N160   1.359       .  A
C159        N482   1.357       .  A
N160        C479   1.363       .  A
C161        N166   1.364       .  A
C161        N486   1.358       .  A
C161        C185   1.476       .  S
N162        C163   1.354       .  A
N162        C485   1.355       .  A
C163        C217   1.428       .  S
C163        N488   1.355       .  A
N164        C165   1.355       .  A
N164        C487   1.354       .  A
C165        C216   1.438       .  S
C165        N166   1.360       .  A
C167        C212   1.431       .  S
C167        N168   1.354       .  A
C167        N172   1.355       .  A
N168        C169   1.356       .  A
C169        N494   1.363       .  A
C169        C181   1.474       .  S
N170        C171   1.358       .  A
N170        C493   1.362   1_554  A
C171        C208   1.439       .  S
C171        N496   1.356   1_554  A
N172        C495   1.356       .  A
C173        C194   1.483       .  S
C173        C174   1.408       .  A
C173        C178   1.403       .  A
C174        C190   1.484       .  S
C174        C175   1.404       .  A
C175        C176   1.403       .  A
C175        H180   1.084       .  S
C176        C182   1.480       .  S
C176        C177   1.418       .  A
C177        C186   1.482       .  S
C177        C178   1.402       .  A
C178        H179   1.084       .  S
C181        C182   1.340       .  D
C181        H183   1.087       .  S
C182        H508   1.086       .  S
H184        C506   1.087   1_554  S
C185        C186   1.341       .  D
C185        H511   1.087       .  S
C186        H188   1.087       .  S
H187        C509   1.086       .  S
C189        C479   1.472       .  S
C189        C190   1.339       .  D
C189        H515   1.086       .  S
C190        H192   1.087       .  S
H191        C513   1.087       .  S
C193        C194   1.338       .  D
C193        H195   1.087       .  S
C194        H520   1.088       .  S
H196        C518   1.086       .  S
C197        C198   1.208       .  T
C198        C199   1.415       .  S
C199        C200   1.208       .  T
C201        C202   1.204       .  T
C202        C203   1.409       .  S
C203        C204   1.204       .  T
C205        C206   1.207       .  T
C206        C207   1.415       .  S
C207        C208   1.207       .  T
C209        C210   1.203       .  T
C210        C211   1.407       .  S
C211        C212   1.203       .  T
C213        C214   1.207       .  T
C214        C215   1.415       .  S
C215        C216   1.207       .  T
C217        C218   1.201       .  T
C218        C219   1.405       .  S
C219        C220   1.201       .  T
C221        C222   1.207       .  T
C222        C223   1.413       .  S
C223        C224   1.206       .  T
C225        C226   1.202       .  T
C226        C227   1.406       .  S
C227        C228   1.202       .  T
C229        C554   1.347   1_556  D
C229        H555   1.087       .  S
C230        C553   1.347       .  D
C230        H556   1.086       .  S
H231        C553   1.087       .  S
H232        C554   1.086       .  S
C233        C234   1.340       .  D
C233        H235   1.086       .  S
C234        H560   1.087       .  S
H236        C558   1.087   1_554  S
C237        C238   1.340   1_556  D
C237        H563   1.087       .  S
C238        H240   1.086       .  S
H239        C561   1.087       .  S
C241        C242   1.341   1_556  D
C241        H567   1.086       .  S
C242        H244   1.087       .  S
H243        C565   1.086       .  S
C245        C246   1.206       .  T
C246        C247   1.413       .  S
C247        C248   1.206       .  T
C249        C250   1.201       .  T
C250        C251   1.405       .  S
C251        C252   1.202       .  T
C253        C254   1.208       .  T
C254        C255   1.417       .  S
C255        C256   1.209       .  T
C257        C258   1.203       .  T
C258        C259   1.407       .  S
C259        C260   1.203       .  T
C261        C262   1.209       .  T
C262        C263   1.417       .  S
C263        C264   1.209       .  T
C265        C266   1.203       .  T
C266        C267   1.408       .  S
C267        C268   1.203       .  T
C269        C359   1.473   1_554  S
C269        C270   1.339   1_544  D
C269        H271   1.087       .  S
C270        H596   1.086       .  S
H272        C594   1.086       .  S
C273        C274   1.207       .  T
C274        C275   1.414       .  S
C275        C276   1.207       .  T
C277        C278   1.201       .  T
C278        C279   1.405       .  S
C279        C280   1.201       .  T
C281        C282   1.340   1_554  D
C281        H283   1.086       .  S
C282        H608   1.087       .  S
H284        C606   1.087       .  S
C285        C286   1.206       .  T
C286        C287   1.413       .  S
C287        C288   1.206       .  T
C289        C290   1.201       .  T
C290        C291   1.405       .  S
C291        C292   1.201       .  T
C293        C618   1.342       .  D
C293        H619   1.086       .  S
C294        C617   1.338       .  D
C294        H620   1.087       .  S
H295        C617   1.086       .  S
H296        C618   1.087       .  S
C297        C298   1.208       .  T
C298        C299   1.415       .  S
C299        C300   1.207       .  T
C301        C302   1.203       .  T
C302        C303   1.407       .  S
C303        C304   1.203       .  T
C305        C306   1.339       .  D
C305        H307   1.086   1_554  S
C306        H632   1.087       .  S
H308        C630   1.086       .  S
C309        C310   1.207       .  T
C310        C311   1.414       .  S
C311        C312   1.207       .  T
C313        C314   1.204       .  T
C314        C315   1.410       .  S
C315        C316   1.204       .  T
C317        C318   1.205       .  T
C318        C319   1.411       .  S
C319        C320   1.205       .  T
C321        C322   1.201       .  T
C322        C323   1.404       .  S
C323        C324   1.202       .  T
O325       Ni333   1.914       .  S
O325        C335   1.279       .  A
O326       Ni333   1.916       .  S
O326        C336   1.279       .  A
O327       Ni333   1.918       .  S
O327        C337   1.280       .  A
O328       Ni333   1.914       .  S
O328        C338   1.280       .  A
O329       Ni334   1.913       .  S
O329        C338   1.277       .  A
O330       Ni334   1.911       .  S
O330        C337   1.279       .  A
O331       Ni334   1.926       .  S
O331        C336   1.281       .  A
O332       Ni334   1.924       .  S
O332        C335   1.281       .  A
Ni333      Ni334   2.394       .  S
C335        C644   1.436       .  S
C336        C636   1.439       .  S
C337        C637   1.431       .  S
C338        C648   1.429       .  S
C339        C624   1.437       .  S
C339        N340   1.358       .  A
C339        N344   1.356       .  A
N340        C341   1.360       .  A
C341        C629   1.472       .  S
N342        C343   1.354       .  A
C343        C628   1.429       .  S
C345        C609   1.437   1_554  S
C345        N346   1.357       .  A
C345        N350   1.356       .  A
N346        C347   1.362       .  A
C347        C617   1.470       .  S
N348        C349   1.356       .  A
C349        C613   1.432       .  S
C351        C604   1.430       .  S
C351        N352   1.353       .  A
C353        N354   1.363   1_565  A
C353        C606   1.471       .  S
N354        C355   1.359       .  A
C355        C600   1.434       .  S
C355        N356   1.355       .  A
C357        C641   1.436       .  S
C357        N358   1.361       .  A
C357        N362   1.357       .  A
N358        C359   1.362       .  A
N360        C361   1.352       .  A
C361        C645   1.428       .  S
C363        C618   1.484       .  S
C363        C364   1.413       .  A
C363        C368   1.404       .  A
C364        C630   1.479       .  S
C364        C365   1.400       .  A
C365        C366   1.399       .  A
C365        H370   1.084       .  S
C366        C594   1.486       .  S
C366        C367   1.421       .  A
C367        C605   1.478       .  S
C367        C368   1.397       .  A
C368        H369   1.083       .  S
O371       Ni379   1.917       .  S
O371        C381   1.280       .  A
O372       Ni379   1.917       .  S
O372        C382   1.280       .  A
O373       Ni379   1.913       .  S
O373        C383   1.279       .  A
O374       Ni379   1.915       .  S
O374        C384   1.279       .  A
O375       Ni380   1.918       .  S
O375        C384   1.280       .  A
O376       Ni380   1.916       .  S
O376        C383   1.280       .  A
O377       Ni380   1.923       .  S
O377        C382   1.281       .  A
O378       Ni380   1.922       .  S
O378        C381   1.281       .  A
Ni379      Ni380   2.394       .  S
C381        C580   1.437       .  S
C382        C585   1.438       .  S
C383        C589   1.431       .  S
C384        C581   1.433       .  S
O385       Ni393   1.913       .  S
O385        C395   1.279       .  A
O386       Ni393   1.915       .  S
O386        C396   1.278       .  A
O387       Ni393   1.924       .  S
O387        C397   1.282       .  A
O388       Ni393   1.925       .  S
O388        C398   1.281       .  A
O389       Ni394   1.913       .  S
O389        C398   1.279       .  A
O390       Ni394   1.912       .  S
O390        C397   1.278       .  A
O391       Ni394   1.913       .  S
O391        C396   1.280       .  A
O392       Ni394   1.916       .  S
O392        C395   1.279       .  A
Ni393      Ni394   2.395       .  S
C395        C616   1.431       .  S
C396        C576   1.430       .  S
C397        C569   1.435       .  S
C398        C612   1.437       .  S
C399        C588   1.437       .  S
C399        N404   1.359       .  A
N400        C401   1.355       .  A
C401        C592   1.432       .  S
C401        N402   1.352       .  A
N402        C403   1.355       .  A
C403        C566   1.475       .  S
C405        C573   1.429       .  S
C405        N406   1.352       .  A
C405        N410   1.355   1_556  A
C407        N408   1.362       .  A
C407        C561   1.474       .  S
N408        C409   1.362       .  A
C409        C572   1.436       .  S
C411        C633   1.439       .  S
C411        N416   1.357       .  A
N412        C413   1.358       .  A
C413        C640   1.432       .  S
C413        N414   1.356       .  A
N414        C415   1.356       .  A
C415        C557   1.474       .  S
C417        C548   1.438       .  S
C417        N418   1.359       .  A
C417        N422   1.356       .  A
C419        N420   1.359       .  A
C419        C553   1.472   1_655  S
N420        C421   1.356       .  A
C421        C552   1.432       .  S
C423        C565   1.484       .  S
C423        C424   1.424       .  A
C424        C562   1.487       .  S
C425        C426   1.400       .  A
C425        H430   1.084       .  S
C426        C554   1.481       .  S
C426        C427   1.412   1_554  A
C427        C558   1.484   1_455  S
C427        C428   1.405       .  A
C428        H429   1.083       .  S
O431       Ni439   1.917       .  S
O431        C441   1.280       .  A
O432       Ni439   1.919       .  S
O432        C442   1.280       .  A
O433       Ni439   1.918       .  S
O433        C443   1.280       .  A
O434       Ni439   1.919       .  S
O434        C444   1.280       .  A
O435       Ni440   1.917       .  S
O435        C444   1.280       .  A
O436       Ni440   1.916       .  S
O436        C443   1.280       .  A
O437       Ni440   1.914       .  S
O437        C442   1.279       .  A
O438       Ni440   1.912       .  S
O438        C441   1.279       .  A
Ni439      Ni440   2.395       .  S
C441        C601   1.430       .  S
C442        C544   1.433       .  S
C443        C537   1.434       .  S
C444        C597   1.435       .  S
O445       Ni453   1.925       .  S
O445        C455   1.281       .  A
O446       Ni453   1.924       .  S
O446        C456   1.281       .  A
O447       Ni453   1.916       .  S
O447        C457   1.279       .  A
O448       Ni453   1.917       .  S
O448        C458   1.279       .  A
O449       Ni454   1.913       .  S
O449        C458   1.279       .  A
O450       Ni454   1.914       .  S
O450        C457   1.279       .  A
O451       Ni454   1.915       .  S
O451        C456   1.279       .  A
O452       Ni454   1.915       .  S
O452        C455   1.279       .  A
Ni453      Ni454   2.394       .  S
C455        C529   1.437       .  S
C456        C545   1.437       .  S
C457        C549   1.431       .  S
C458        C533   1.431       .  S
O459       Ni467   1.915       .  S
O459        C469   1.280       .  A
O460       Ni467   1.915       .  S
O460        C470   1.280       .  A
O461       Ni467   1.915       .  S
O461        C471   1.279       .  A
O462       Ni467   1.914       .  S
O462        C472   1.279       .  A
O463       Ni468   1.924       .  S
O463        C472   1.281       .  A
O464       Ni468   1.924       .  S
O464        C471   1.281       .  A
O465       Ni468   1.912       .  S
O465        C470   1.278       .  A
O466       Ni468   1.912       .  S
O466        C469   1.278       .  A
Ni467      Ni468   2.395       .  S
C469        C625   1.430       .  S
C470        C525   1.430       .  S
C471        C524   1.437       .  S
C472        C621   1.436       .  S
C473        N474   1.358       .  A
C473        C517   1.477       .  S
N474        C475   1.355       .  A
C475        C584   1.433       .  S
C475        N476   1.354   1_556  A
C477        C577   1.438       .  S
C477        N478   1.359       .  A
C479        N480   1.355       .  A
N480        C481   1.354       .  A
C481        C528   1.430       .  S
C481        N482   1.356       .  A
C483        C521   1.437       .  S
C483        N484   1.359       .  A
C485        N490   1.361   1_554  A
C485        C509   1.470       .  S
N486        C487   1.355       .  A
C487        C541   1.433       .  S
N488        C489   1.356   1_554  A
C489        C540   1.435       .  S
C489        N490   1.357       .  A
C491        C536   1.432       .  S
C491        N492   1.356       .  A
C491        N496   1.356       .  A
N492        C493   1.357       .  A
C493        C505   1.475       .  S
N494        C495   1.359       .  A
C495        C532   1.437       .  S
C497        C518   1.484       .  S
C497        C498   1.420   1_554  A
C497        C502   1.401       .  A
C498        C514   1.481       .  S
C498        C499   1.404       .  A
C499        C500   1.403       .  A
C499        H504   1.084       .  S
C500        C506   1.484       .  S
C500        C501   1.407       .  A
C501        C510   1.481       .  S
C501        C502   1.403   1_556  A
C502        H503   1.084       .  S
C505        C506   1.340       .  D
C505        H507   1.086       .  S
C509        C510   1.338   1_554  D
C510        H512   1.087       .  S
C513        C514   1.341   1_554  D
C514        H516   1.087       .  S
C517        C518   1.341   1_556  D
C517        H519   1.087       .  S
C521        C522   1.207       .  T
C522        C523   1.414       .  S
C523        C524   1.207       .  T
C525        C526   1.203       .  T
C526        C527   1.407       .  S
C527        C528   1.203       .  T
C529        C530   1.207       .  T
C530        C531   1.414       .  S
C531        C532   1.207       .  T
C533        C534   1.203       .  T
C534        C535   1.408       .  S
C535        C536   1.203       .  T
C537        C538   1.205       .  T
C538        C539   1.411       .  S
C539        C540   1.205       .  T
C541        C542   1.204       .  T
C542        C543   1.410       .  S
C543        C544   1.204       .  T
C545        C546   1.207       .  T
C546        C547   1.414       .  S
C547        C548   1.207       .  T
C549        C550   1.203       .  T
C550        C551   1.408       .  S
C551        C552   1.203       .  T
C557        C558   1.341       .  D
C557        H559   1.086       .  S
C561        C562   1.341       .  D
C562        H564   1.086       .  S
C565        C566   1.340       .  D
C566        H568   1.087       .  S
C569        C570   1.206       .  T
C570        C571   1.413       .  S
C571        C572   1.206       .  T
C573        C574   1.202       .  T
C574        C575   1.405       .  S
C575        C576   1.202       .  T
C577        C578   1.207       .  T
C578        C579   1.414       .  S
C579        C580   1.207       .  T
C581        C582   1.204       .  T
C582        C583   1.410       .  S
C583        C584   1.204       .  T
C585        C586   1.207       .  T
C586        C587   1.414       .  S
C587        C588   1.207       .  T
C589        C590   1.203       .  T
C590        C591   1.408       .  S
C591        C592   1.203       .  T
C593        C594   1.341   1_545  D
C593        H595   1.087       .  S
C597        C598   1.205       .  T
C598        C599   1.411       .  S
C599        C600   1.205       .  T
C601        C602   1.203       .  T
C602        C603   1.407       .  S
C603        C604   1.203       .  T
C605        C606   1.339       .  D
C605        H607   1.086       .  S
C609        C610   1.207       .  T
C610        C611   1.414       .  S
C611        C612   1.207       .  T
C613        C614   1.203       .  T
C614        C615   1.408       .  S
C615        C616   1.203       .  T
C621        C622   1.206       .  T
C622        C623   1.413       .  S
C623        C624   1.206       .  T
C625        C626   1.202       .  T
C626        C627   1.406       .  S
C627        C628   1.202       .  T
C629        C630   1.345       .  D
C629        H631   1.087       .  S
C633        C634   1.208       .  T
C634        C635   1.416       .  S
C635        C636   1.208       .  T
C637        C638   1.203       .  T
C638        C639   1.408       .  S
C639        C640   1.204       .  T
C641        C642   1.206       .  T
C642        C643   1.413       .  S
C643        C644   1.206       .  T
C645        C646   1.201       .  T
C646        C647   1.404       .  S
C647        C648   1.202       .  T
