geometry optimzed in LAMMPS
_audit_creation_date              2020-11-30 
_audit_creation_method            'lammps2cif' 
_symmetry_space_group_name_H-M    'P1' 
_symmetry_Int_Tables_number       1 
_symmetry_cell_setting            triclinic 
loop_ 
_symmetry_equiv_pos_as_xyz 
  x,y,z 
_cell_length_a                    35.60260135592312 
_cell_length_b                    39.17054118109639 
_cell_length_c                    39.42452694630422 
_cell_angle_alpha                 89.91790639159105 
_cell_angle_beta                  88.35435366418369 
_cell_angle_gamma                 88.25724312409432 
loop_ 
_atom_site_label 
_atom_site_type_symbol 
_atom_site_fract_x 
_atom_site_fract_y 
_atom_site_fract_z 
_atom_site_charge 
O1          O  0.46673993  0.52994857  0.57778785    -0.80840
O2          O  0.53618856  0.42521419  0.46522976    -0.65530
O3          O  0.51731922  0.50230833  0.52793163    -1.12130
C4          C  0.44444473  0.53746752  0.43611931     1.06050
O5          O  0.54631520  0.46046467  0.42297807    -0.78740
O6          O  0.55320198  0.52702803  0.44250696    -0.66320
Ni7        Ni  0.49665974  0.48909749  0.57160336     1.34870
C8          C  0.55060817  0.55245179  0.46292425     0.84780
O9          O  0.56724119  0.44621743  0.52930202    -0.79280
O10         O  0.52785693  0.44877442  0.57276632    -0.89550
C11         C  0.53941994  0.43050201  0.43311978     0.84360
O12         O  0.45475581  0.46524955  0.55220539    -0.67750
O13         O  0.47731877  0.53625756  0.42267415    -0.87040
C14         C  0.45817161  0.43882376  0.53319225     0.85190
C15         C  0.56161212  0.44730264  0.56161277     1.06750
H16         H  0.47108337  0.47298149  0.46717275     0.38560
O17         O  0.49314680  0.48642068  0.46972065    -1.09700
O18         O  0.52067364  0.55670815  0.48167975    -0.66350
Ni19       Ni  0.48139720  0.52496982  0.49936042     1.26350
O20         O  0.48882383  0.43301855  0.51608168    -0.66580
O21         O  0.44122430  0.54032749  0.46863195    -0.78870
C22         C  0.46896715  0.55933962  0.56448458     0.84570
O23         O  0.47192084  0.56265898  0.53206392    -0.66050
Ni24       Ni  0.51271741  0.49894578  0.42569336     1.27450
Ni25       Ni  0.52850080  0.46327257  0.49816393     1.26060
H26         H  0.53937290  0.51574517  0.53055973     0.39110
O27         O  0.47869500  0.20582136  0.15558515    -0.80840
O28         O  0.53702694  0.31001532  0.26990938    -0.65530
O29         O  0.52129515  0.23458518  0.20688020    -1.12130
C30         C  0.45269207  0.19540092  0.29939489     1.06050
O31         O  0.53995263  0.27790624  0.31650375    -0.78740
O32         O  0.55780449  0.21431506  0.28627694    -0.66320
Ni33       Ni  0.50236866  0.24830544  0.16372777     1.34870
C34         C  0.55593548  0.18769027  0.26768182     0.84780
O35         O  0.56886146  0.28925343  0.20522567    -0.79280
O36         O  0.52880224  0.28946857  0.16475913    -0.89550
C37         C  0.54081011  0.30691691  0.30219888     0.84360
O38         O  0.45761274  0.27048609  0.18493570    -0.67750
O39         O  0.48654387  0.19575682  0.30833547    -0.87040
C40         C  0.45875192  0.29727731  0.20359906     0.85190
C41         C  0.56265024  0.28975599  0.17344329     1.06750
H42         H  0.47145789  0.26466308  0.26968067     0.38560
O43         O  0.49412944  0.25080365  0.26606670    -1.09700
O44         O  0.52566874  0.18160635  0.25234624    -0.66350
Ni45       Ni  0.48540444  0.21263428  0.23576466     1.26350
O46         O  0.48855343  0.30334533  0.22005913    -0.66580
O47         O  0.44648030  0.19615769  0.26758050    -0.78870
C48         C  0.47920237  0.17700909  0.17051899     0.84570
O49         O  0.47951177  0.17504924  0.20313691    -0.66050
Ni50       Ni  0.51410397  0.23651451  0.30873435     1.27450
Ni51       Ni  0.52981147  0.27283042  0.23698597     1.26060
H52         H  0.54405147  0.22073220  0.20363897     0.39110
C53         C  0.77516126  0.72591879  0.76817167     0.03180
C54         C  0.79175957  0.73679561  0.73748801    -0.12970
C55         C  0.77428963  0.76285564  0.71898013     0.00680
C56         C  0.73864497  0.77533707  0.72874994    -0.11500
C57         C  0.72345617  0.76684760  0.76039642     0.03170
C58         C  0.74137471  0.74167258  0.77987059    -0.10920
H59         H  0.81942270  0.72711906  0.72942052     0.08770
H60         H  0.72549742  0.79564495  0.71407951     0.06300
H61         H  0.73095557  0.73661122  0.80541826     0.06140
C62         C  0.73284248  0.99482400  0.97692500     0.03180
C63         C  0.73695922  0.98117811  0.00924507    -0.12970
C64         C  0.76460978  0.99303100  0.03025912     0.00680
C65         C  0.78530431  0.02148331  0.02003211    -0.11500
C66         C  0.77874331  0.03696775  0.98864629     0.03170
C67         C  0.75314305  0.02289582  0.96683721    -0.10920
H68         H  0.72007085  0.95984633  0.01712445     0.08770
H69         H  0.80714673  0.03094475  0.03570651     0.06300
H70         H  0.75001843  0.03300850  0.94141213     0.06140
C71         C  0.00076672  0.76339980  0.04650794     0.03180
C72         C  0.98853004  0.73187546  0.03546270    -0.12970
C73         C  0.00371569  0.71760923  0.00541995     0.00680
C74         C  0.03406516  0.73295725  0.98884585    -0.11500
C75         C  0.04593588  0.76456768  0.99968952     0.03170
C76         C  0.03076711  0.77875426  0.02962868    -0.10920
H77         H  0.96408026  0.72078493  0.04760801     0.08770
H78         H  0.04520291  0.72271540  0.96497367     0.06300
H79         H  0.03865602  0.80406751  0.03729271     0.06140
C80         C  0.99409273  0.99898680  0.72451890     0.03180
C81         C  0.97724875  0.02854904  0.73895831    -0.12970
C82         C  0.99683595  0.04751181  0.76240650     0.00680
C83         C  0.03337085  0.03711810  0.77064099    -0.11500
C84         C  0.04822864  0.00591519  0.75886934     0.03170
C85         C  0.03019536  0.98857346  0.73361644    -0.10920
H86         H  0.94817587  0.03521087  0.73390710     0.08770
H87         H  0.04793312  0.05050121  0.79016498     0.06300
H88         H  0.04247610  0.96478113  0.72385014     0.06140
O89         O  0.14003652  0.92669349  0.87033843    -0.74380
O90         O  0.21081427  0.87638425  0.92270281    -0.74410
O91         O  0.21307631  0.92554621  0.86789666    -0.74460
O92         O  0.13752446  0.88137877  0.92124253    -0.74510
O93         O  0.13550151  0.84004058  0.88233268    -0.74440
O94         O  0.21580892  0.88096749  0.83295247    -0.74420
O95         O  0.20872016  0.83269459  0.88698389    -0.74400
O96         O  0.14259097  0.88538274  0.83111779    -0.74460
Ni97       Ni  0.17604966  0.90402407  0.89698787     1.25410
Ni98       Ni  0.17625177  0.85814888  0.85695946     1.25360
C99         C  0.13122061  0.91486580  0.84158759     0.87800
C100        C  0.21449450  0.84413456  0.91674016     0.87740
C101        C  0.22035937  0.91292704  0.83831632     0.87760
C102        C  0.12487219  0.85322418  0.91076026     0.87930
O103        O  0.91592084  0.87551768  0.13731069    -0.74380
O104        O  0.86575159  0.92856241  0.20699160    -0.74410
O105        O  0.92369514  0.87611873  0.20325865    -0.74460
O106        O  0.86187442  0.92465855  0.14125068    -0.74510
O107        O  0.81828751  0.88495408  0.14691210    -0.74440
O108        O  0.88227238  0.83506779  0.20816290    -0.74420
O109        O  0.82341345  0.88840691  0.21367969    -0.74400
O110        O  0.87271628  0.83542051  0.14300793    -0.74460
Ni111      Ni  0.89343860  0.90260280  0.17260776     1.25410
Ni112      Ni  0.84747002  0.85955148  0.17886583     1.25360
C113        C  0.90290779  0.84662672  0.12945610     0.87800
C114        C  0.83218363  0.92000891  0.21523599     0.87740
C115        C  0.91631216  0.84496626  0.21011050     0.87760
C116        C  0.83002828  0.91290122  0.13412860     0.87930
O117        O  0.83992787  0.87470039  0.61750576    -0.74380
O118        O  0.89599934  0.93151354  0.55609021    -0.74410
O119        O  0.84191082  0.87828405  0.55089833    -0.74460
O120        O  0.88852556  0.92497019  0.62153235    -0.74510
O121        O  0.93748177  0.88785392  0.61874701    -0.74440
O122        O  0.88499954  0.83621928  0.55202895    -0.74420
O123        O  0.94081293  0.89097154  0.55152599    -0.74400
O124        O  0.88836811  0.83691879  0.61743367    -0.74460
Ni125      Ni  0.86487400  0.90370916  0.58582773     1.25410
Ni126      Ni  0.91489426  0.86160736  0.58403590     1.25360
C127        C  0.85548847  0.84669562  0.62751611     0.87800
C128        C  0.93068516  0.92278925  0.54979761     0.87740
C129        C  0.85094357  0.84655719  0.54650541     0.87760
C130        C  0.92075005  0.91475051  0.63112308     0.87930
O131        O  0.89080974  0.62240391  0.93106165    -0.74380
O132        O  0.83549593  0.55666800  0.88369251    -0.74410
O133        O  0.89392676  0.55588026  0.93540993    -0.74460
O134        O  0.83886030  0.62324058  0.88331762    -0.74510
O135        O  0.88619075  0.62248674  0.84482273    -0.74440
O136        O  0.93678801  0.55018504  0.89389407    -0.74420
O137        O  0.87766506  0.55665703  0.84128367    -0.74400
O138        O  0.93816218  0.61728509  0.89279697    -0.74460
Ni139      Ni  0.86313416  0.58878324  0.90984506     1.25410
Ni140      Ni  0.91140459  0.58559367  0.86665897     1.25360
C141        C  0.92343760  0.63024223  0.92006156     0.87800
C142        C  0.84314523  0.55354839  0.85168708     0.87740
C143        C  0.92821290  0.54840118  0.92591624     0.87760
C144        C  0.85422260  0.63415801  0.85578217     0.87930
O145        O  0.61726712  0.84649595  0.86583827    -0.74380
O146        O  0.54893066  0.89919505  0.92200872    -0.74410
O147        O  0.54454422  0.84579884  0.87263248    -0.74460
O148        O  0.62206771  0.89672327  0.91085347    -0.74510
O149        O  0.61499713  0.93677316  0.87087373    -0.74440
O150        O  0.54090714  0.88246983  0.82988906    -0.74420
O151        O  0.54132350  0.93727017  0.88070924    -0.74400
O152        O  0.61381454  0.88606213  0.82497903    -0.74460
Ni153      Ni  0.58264890  0.87075801  0.89445989     1.25410
Ni154      Ni  0.57663783  0.91224690  0.85017547     1.25360
C155        C  0.62621095  0.85732778  0.83626551     0.87800
C156        C  0.54035545  0.92975392  0.91262684     0.87740
C157        C  0.53887083  0.85172612  0.84105941     0.87760
C158        C  0.63135608  0.92484002  0.89694349     0.87930
O159        O  0.88941628  0.15238676  0.92975544    -0.74380
O160        O  0.93753577  0.22216134  0.87670888    -0.74410
O161        O  0.88545037  0.21923554  0.93580852    -0.74460
O162        O  0.93669496  0.15486466  0.87555760    -0.74510
O163        O  0.88798848  0.15710745  0.84100288    -0.74440
O164        O  0.83807135  0.22180045  0.90063609    -0.74420
O165        O  0.88978339  0.22356543  0.84173588    -0.74400
O166        O  0.84086931  0.15536407  0.89513873    -0.74460
Ni167      Ni  0.91416408  0.18789661  0.90574760     1.25410
Ni168      Ni  0.86238820  0.19038285  0.86845192     1.25360
C169        C  0.85706816  0.14276771  0.92105781     0.87800
C170        C  0.92504300  0.22712913  0.84665038     0.87740
C171        C  0.84994453  0.22341702  0.93108629     0.87760
C172        C  0.92033338  0.14519977  0.84885893     0.87930
O173        O  0.21076535  0.41370419  0.29183049    -0.80840
O174        O  0.28449571  0.52470423  0.19381800    -0.65530
O175        O  0.26360044  0.46002793  0.26662912    -1.12130
C176        C  0.19633112  0.55265460  0.31431810     1.06050
O177        O  0.27842029  0.57236253  0.22457113    -0.78740
O178        O  0.30046396  0.54250909  0.28672125    -0.66320
Ni179      Ni  0.24319000  0.41786871  0.25217221     1.34870
C180        C  0.29965853  0.52347668  0.31321280     0.84780
O181        O  0.31443586  0.45946061  0.21241925    -0.79280
O182        O  0.27811951  0.41492200  0.21397939    -0.89550
C183        C  0.28378941  0.55736513  0.19628616     0.84360
O184        O  0.20201903  0.43944768  0.22606713    -0.67750
O185        O  0.22968498  0.56245878  0.31066108    -0.87040
C186        C  0.20499000  0.46102671  0.20165500     0.85190
C187        C  0.31105036  0.42689452  0.21188641     1.06750
H188        H  0.21484294  0.52330471  0.24116127     0.38560
O189        O  0.23749123  0.52015969  0.25387572    -1.09700
O190        O  0.27074646  0.50543468  0.31999587    -0.66350
Ni191      Ni  0.22912879  0.48909454  0.29180640     1.26350
O192        O  0.23556671  0.47727128  0.19781274    -0.66580
O193        O  0.19072347  0.52060571  0.31224137    -0.78870
C194        C  0.21735197  0.42295480  0.32203182     0.84570
O195        O  0.22339246  0.45455662  0.32790618    -0.66050
Ni196      Ni  0.25536590  0.56354569  0.26776890     1.27450
Ni197      Ni  0.27451457  0.49125633  0.22991995     1.26060
H198        H  0.28597984  0.45531770  0.27935237     0.39110
O199        O  0.16329484  0.27946823  0.53984658    -0.80840
O200        O  0.28471180  0.21464972  0.43202228    -0.65530
O201        O  0.21982603  0.23628811  0.51097521    -1.12130
C202        C  0.32305055  0.30441563  0.53646205     1.06050
O203        O  0.33593866  0.20962170  0.46226351    -0.78740
O204        O  0.31475411  0.20548940  0.52886542    -0.66320
Ni205      Ni  0.17072198  0.25316232  0.49929404     1.34870
C206        C  0.29253727  0.20814317  0.55477923     0.84780
O207        O  0.21696794  0.18866718  0.45881630    -0.79280
O208        O  0.16903858  0.22452474  0.46001425    -0.89550
C209        C  0.32021824  0.20950216  0.43378236     0.84360
O210        O  0.19220588  0.29148076  0.47434598    -0.67750
O211        O  0.33846491  0.27468604  0.53414667    -0.87040
C212        C  0.21327414  0.28872095  0.44755559     0.85190
C213        C  0.18138929  0.19385784  0.45883306     1.06750
H214        H  0.28527432  0.27756982  0.47394411     0.38560
O215        O  0.28333844  0.25817508  0.48899642    -1.09700
O216        O  0.27315009  0.23584410  0.56009534    -0.66350
Ni217      Ni  0.25194228  0.27038731  0.52850063     1.26350
O218        O  0.23015473  0.26011655  0.44054545    -0.66580
O219        O  0.28685870  0.30711552  0.53958337    -0.78870
C220        C  0.18061318  0.28239345  0.56734757     0.84570
O221        O  0.21691630  0.28076414  0.56764095    -0.66050
Ni222      Ni  0.33296381  0.24146777  0.49892575     1.27450
Ni223      Ni  0.25111734  0.22464151  0.47122278     1.26060
H224        H  0.21785348  0.21690070  0.52604341     0.39110
O225        O  0.48402816  0.72170782  0.66858739    -0.80840
O226        O  0.53678765  0.82436522  0.78495176    -0.65530
O227        O  0.52455931  0.74834296  0.72218870    -1.12130
C228        C  0.44772083  0.71265587  0.81303040     1.06050
O229        O  0.53857866  0.79212581  0.83121369    -0.78740
O230        O  0.55541853  0.72647563  0.80388666    -0.66320
Ni231      Ni  0.51015466  0.76237361  0.67753060     1.34870
C232        C  0.55419635  0.70017140  0.78459362     0.84780
O233        O  0.57496177  0.80151624  0.72281838    -0.79280
O234        O  0.53887570  0.80218193  0.67936241    -0.89550
C235        C  0.53631947  0.82148015  0.81747143     0.84360
O236        O  0.46542544  0.78702497  0.69507736    -0.67750
O237        O  0.48107334  0.71202447  0.82362842    -0.87040
C238        C  0.46656277  0.81398015  0.71335308     0.85190
C239        C  0.57178687  0.80147037  0.69052743     1.06750
H240        H  0.47216391  0.78046342  0.78222768     0.38560
O241        O  0.49442963  0.76581946  0.77985384    -1.09700
O242        O  0.52434382  0.69511964  0.76791298    -0.66350
Ni243      Ni  0.48569427  0.72786174  0.74975939     1.26350
O244        O  0.49465329  0.81865815  0.73232223    -0.66580
O245        O  0.44387115  0.71323619  0.78064667    -0.78870
C246        C  0.47934492  0.69347933  0.68369316     0.84570
O247        O  0.47842804  0.69119876  0.71639151    -0.66050
Ni248      Ni  0.51128614  0.75144795  0.82367121     1.27450
Ni249      Ni  0.53257042  0.78670303  0.75229792     1.26060
H250        H  0.54691749  0.73375732  0.72051530     0.39110
O251        O  0.21558780  0.83204872  0.97566104    -0.80840
O252        O  0.27975043  0.71187891  0.07140611    -0.65530
O253        O  0.26406951  0.78032551  0.00121614    -1.12130
C254        C  0.20035523  0.69187759  0.95185128     1.06050
O255        O  0.28748344  0.66763932  0.03616561    -0.78740
O256        O  0.30502998  0.69695499  0.97278239    -0.66320
Ni257      Ni  0.24036979  0.82217287  0.01755326     1.34870
C258        C  0.30344008  0.71759922  0.94760450     0.84780
O259        O  0.30916682  0.77784416  0.05706579    -0.79280
O260        O  0.26768285  0.82006143  0.05846596    -0.89550
C261        C  0.28430923  0.67968909  0.06606985     0.84360
O262        O  0.19683368  0.79922035  0.03890587    -0.67750
O263        O  0.23317637  0.67900255  0.95468139    -0.87040
C264        C  0.19905507  0.77903088  0.06452805     0.85190
C265        C  0.30188886  0.81002797  0.05933104     1.06750
H266        H  0.21659273  0.71632704  0.02396747     0.38560
O267        O  0.23987430  0.72005405  0.01149321    -1.09700
O268        O  0.27412095  0.73717409  0.94425773    -0.66350
Ni269      Ni  0.23177431  0.75294793  0.97552974     1.26350
O270        O  0.22997673  0.76191710  0.06880692    -0.66580
O271        O  0.19507602  0.72404912  0.95530193    -0.78870
C272        C  0.22026176  0.81996030  0.94580173     0.84570
O273        O  0.22563315  0.78791056  0.94087514    -0.66050
Ni274      Ni  0.26113093  0.67711545  0.99537176     1.27450
Ni275      Ni  0.27267864  0.74743150  0.03713560     1.26060
H276        H  0.28718263  0.78477444  0.98873161     0.39110
O277        O  0.05415897  0.43408385  0.97656168    -0.80840
O278        O  0.97806772  0.53850602  0.08049205    -0.65530
O279        O  0.99920088  0.47758292  0.00515643    -1.12130
C280        C  0.06208169  0.57529650  0.96178880     1.06050
O281        O  0.95869376  0.57605652  0.04368102    -0.78740
O282        O  0.95993467  0.56926363  0.97520817    -0.66320
Ni283      Ni  0.02363109  0.43521906  0.01705752     1.34870
C284        C  0.95928788  0.54583350  0.95267362     0.84780
O285        O  0.95155374  0.47426837  0.06190480    -0.79280
O286        O  0.99161396  0.43115563  0.05664298    -0.89550
C287        C  0.96760173  0.56893599  0.07377800     0.84360
O288        O  0.06483676  0.45463294  0.04241107    -0.67750
O289        O  0.03547907  0.59153550  0.97752035    -0.87040
C290        C  0.06152220  0.47393639  0.06855221     0.85190
C291        C  0.95782951  0.44203703  0.05994636     1.06750
H292        H  0.04235960  0.54075594  0.03020669     0.38560
O293        O  0.01922302  0.53764097  0.01851498    -1.09700
O294        O  0.98532245  0.52254744  0.95137380    -0.66350
Ni295      Ni  0.02912569  0.50892087  0.97934157     1.26350
O296        O  0.03057372  0.49142412  0.07349970    -0.66580
O297        O  0.06245830  0.54253233  0.95777102    -0.78870
C298        C  0.04447178  0.44451443  0.94746892     0.84570
O299        O  0.03706128  0.47624582  0.94257586    -0.66050
Ni300      Ni  0.99627267  0.58152703  0.00945749     1.27450
Ni301      Ni  0.98792775  0.50659657  0.04365529     1.26060
H302        H  0.97634937  0.47306932  0.99351361     0.39110
O303        O  0.23596401  0.91977307  0.78049111    -0.80840
O304        O  0.28574547  0.04177574  0.67739175    -0.65530
O305        O  0.27321224  0.97599425  0.75240468    -1.12130
C306        C  0.19336132  0.06263247  0.79189394     1.06050
O307        O  0.28388939  0.08721739  0.71111247    -0.78740
O308        O  0.30046516  0.05623315  0.77393791    -0.66320
Ni309      Ni  0.26155911  0.93076250  0.73875224     1.34870
C310        C  0.29758572  0.03682900  0.80004793     0.84780
O311        O  0.32583865  0.97951561  0.69869255    -0.79280
O312        O  0.29066923  0.93571832  0.69854573    -0.89550
C313        C  0.28403022  0.07451062  0.68148311     0.84360
O314        O  0.21622294  0.94778814  0.71684655    -0.67750
O315        O  0.22659514  0.07285358  0.79213516    -0.87040
C316        C  0.21625627  0.96718497  0.69056198     0.85190
C317        C  0.32339709  0.94702261  0.70014111     1.06750
H318        H  0.21943932  0.03565537  0.72210348     0.38560
O319        O  0.24117880  0.03313779  0.73622860    -1.09700
O320        O  0.26770302  0.02008712  0.80539023    -0.66350
Ni321      Ni  0.23201302  0.00150577  0.77334907     1.26350
O322        O  0.24425096  0.98647119  0.68405188    -0.66580
O323        O  0.18893656  0.03043990  0.78947587    -0.78870
C324        C  0.22866851  0.93527035  0.80829026     0.84570
O325        O  0.22484725  0.96796199  0.80977775    -0.66050
Ni326      Ni  0.25652928  0.07666259  0.75196915     1.27450
Ni327      Ni  0.28123347  0.00740028  0.71436455     1.26060
H328        H  0.29493890  0.97498092  0.76648682     0.39110
O329        O  0.71077637  0.81906464  0.46789828    -0.80840
O330        O  0.79148073  0.72841700  0.57237073    -0.65530
O331        O  0.76906714  0.78027167  0.49135801    -1.12130
C332        C  0.69798571  0.68043273  0.46752740     1.06050
O333        O  0.80238234  0.68222605  0.54204751    -0.78740
O334        O  0.80619174  0.69184688  0.47493164    -0.66320
Ni335      Ni  0.75021457  0.82634384  0.49741221     1.34870
C336        C  0.80449953  0.71161462  0.44925182     0.84780
O337        O  0.81962905  0.79058375  0.54398308    -0.79280
O338        O  0.79128658  0.83852106  0.52468249    -0.89550
C339        C  0.79624443  0.69604492  0.57077835     0.84360
O340        O  0.71540871  0.81774932  0.53522928    -0.67750
O341        O  0.72970347  0.66642421  0.47461355    -0.87040
C342        C  0.71628172  0.79716761  0.56029701     0.85190
C343        C  0.81963042  0.82305758  0.53719651     1.06750
H344        H  0.72490812  0.72231795  0.52991705     0.38560
O345        O  0.74685092  0.72337497  0.51498441    -1.09700
O346        O  0.77431358  0.72898742  0.44381676    -0.66350
Ni347      Ni  0.73384003  0.74778644  0.47426886     1.26350
O348        O  0.74266207  0.77487345  0.56285848    -0.66580
O349        O  0.69557238  0.71323833  0.46293857    -0.78870
C350        C  0.71755170  0.80825027  0.43812799     0.84570
O351        O  0.72359379  0.77616488  0.43428045    -0.66050
Ni352      Ni  0.76695899  0.67788153  0.50742923     1.27450
Ni353      Ni  0.78199492  0.75600186  0.53205231     1.26060
H354        H  0.79112169  0.78087344  0.47652360     0.39110
O355        O  0.05220071  0.81835991  0.29333065    -0.80840
O356        O  0.97002923  0.72201439  0.19559153    -0.65530
O357        O  0.99362201  0.78108167  0.26977486    -1.12130
C358        C  0.05696486  0.67916593  0.30840308     1.06050
O359        O  0.95342570  0.68258086  0.23151065    -0.78740
O360        O  0.95481408  0.69187065  0.29858474    -0.66320
Ni361      Ni  0.01726040  0.82278376  0.25754531     1.34870
C362        C  0.95423722  0.71534675  0.32098508     0.84780
O363        O  0.94517228  0.78804038  0.21644587    -0.79280
O364        O  0.98012087  0.83359290  0.22410104    -0.89550
C365        C  0.96106716  0.69136031  0.20132289     0.84360
O366        O  0.05514704  0.80289747  0.22504769    -0.67750
O367        O  0.03007272  0.66441656  0.29455932    -0.87040
C368        C  0.05180716  0.78123959  0.20104081     0.85190
C369        C  0.94846703  0.82058904  0.21827559     1.06750
H370        H  0.03591451  0.71586896  0.24070959     0.38560
O371        O  0.01312612  0.71980357  0.25423364    -1.09700
O372        O  0.98091767  0.73627084  0.32256413    -0.66350
Ni373      Ni  0.02433201  0.74775430  0.29295832     1.26350
O374        O  0.02174264  0.76443600  0.19943222    -0.66580
O375        O  0.05773236  0.71193978  0.31192389    -0.78870
C376        C  0.04306191  0.81045310  0.32372789     0.84570
O377        O  0.03359508  0.77976156  0.32988331    -0.66050
Ni378      Ni  0.99130952  0.67640887  0.26388929     1.27450
Ni379      Ni  0.98082088  0.75291728  0.23224023     1.26060
H380        H  0.97114490  0.78656655  0.28324843     0.39110
O381        O  0.58918364  0.96457649  0.02801818    -0.80840
O382        O  0.45927833  0.02585716  0.93401232    -0.65530
O383        O  0.53008993  0.00720771  0.00522584    -1.12130
C384        C  0.43239005  0.94173583  0.05016292     1.06050
O385        O  0.40657850  0.02266473  0.96556510    -0.78740
O386        O  0.43977979  0.03838814  0.02874158    -0.66320
Ni387      Ni  0.57946924  0.99284084  0.98936010     1.34870
C388        C  0.46274656  0.03643652  0.05331076     0.84780
O389        O  0.52672223  0.05539808  0.95409030    -0.79280
O390        O  0.57800723  0.02306020  0.95115513    -0.89550
C391        C  0.42335788  0.02583124  0.93683251     0.84360
O392        O  0.56010643  0.95491993  0.96415633    -0.67750
O393        O  0.41883517  0.97202894  0.04798868    -0.87040
C394        C  0.53772868  0.95743588  0.93942340     0.85190
C395        C  0.56261126  0.05272889  0.95160944     1.06750
H396        H  0.46393895  0.96301304  0.97613935     0.38560
O397        O  0.46614081  0.98270351  0.99071612    -1.09700
O398        O  0.48084675  0.00833360  0.05895531    -0.66350
Ni399      Ni  0.50042679  0.97286121  0.02685482     1.26350
O400        O  0.51678542  0.98425164  0.93589419    -0.66580
O401        O  0.46784068  0.93685516  0.04486119    -0.78870
C402        C  0.57318378  0.96156047  0.05703273     0.84570
O403        O  0.53741811  0.96433465  0.06137846    -0.66050
Ni404      Ni  0.41753476  0.99887339  0.00712027     1.27450
Ni405      Ni  0.49557903  0.01763761  0.96945569     1.26060
H406        H  0.53224157  0.02689821  0.01965917     0.39110
C407        C  0.23404917  0.69447017  0.25347388     0.03180
C408        C  0.25669808  0.71333206  0.23077618    -0.12970
C409        C  0.24437836  0.74542500  0.21939637     0.00680
C410        C  0.21013993  0.75914071  0.23167807    -0.11500
C411        C  0.18853447  0.74136409  0.25543932     0.03170
C412        C  0.19796539  0.70732790  0.26239142    -0.10920
H413        H  0.28508989  0.70490453  0.22414493     0.08770
H414        H  0.20365735  0.78588309  0.22686965     0.06300
H415        H  0.18026622  0.69357239  0.28017502     0.06140
O416        O  0.35914901  0.60786525  0.41745034    -0.74380
O417        O  0.32098203  0.53041152  0.37088547    -0.74410
O418        O  0.37700256  0.54287932  0.42291929    -0.74460
O419        O  0.30812354  0.59703196  0.36931329    -0.74510
O420        O  0.35392561  0.60306464  0.33006893    -0.74440
O421        O  0.41907762  0.54453172  0.38033747    -0.74420
O422        O  0.36303533  0.53695124  0.32906390    -0.74400
O423        O  0.40531623  0.61039398  0.37793975    -0.74460
Ni424      Ni  0.33966627  0.56864075  0.39666092     1.25410
Ni425      Ni  0.38705370  0.57329261  0.35295566     1.25360
C426        C  0.38986576  0.62014169  0.40614145     0.87800
C427        C  0.33015386  0.52777739  0.33912262     0.87740
C428        C  0.41161177  0.54096297  0.41226458     0.87760
C429        C  0.32014489  0.60864740  0.34075912     0.87930
C430        C  0.56077265  0.98695778  0.24297983     0.03180
C431        C  0.55518370  0.02040233  0.25513455    -0.12970
C432        C  0.52164723  0.03840872  0.24817007     0.00680
C433        C  0.49707339  0.02444713  0.22498224    -0.11500
C434        C  0.50514543  0.99275378  0.21019901     0.03170
C435        C  0.53890618  0.97564061  0.21681899    -0.10920
H436        H  0.57335440  0.02942142  0.27451891     0.08770
H437        H  0.46911009  0.03557982  0.22224989     0.06300
H438        H  0.54337062  0.95002450  0.20694751     0.06140
O439        O  0.62105823  0.89927320  0.36389997    -0.74380
O440        O  0.69967455  0.86310616  0.41721099    -0.74410
O441        O  0.69171063  0.91578864  0.36812511    -0.74460
O442        O  0.62886617  0.84980030  0.41036267    -0.74510
O443        O  0.64261885  0.81262999  0.36847701    -0.74440
O444        O  0.70947889  0.87816364  0.32850252    -0.74420
O445        O  0.71356100  0.82324032  0.37840613    -0.74400
O446        O  0.63829180  0.86303290  0.32225648    -0.74460
Ni447      Ni  0.66029188  0.88341352  0.39139482     1.25410
Ni448      Ni  0.67730538  0.84302216  0.34782823     1.25360
C449        C  0.61793302  0.88808727  0.33378053     0.87800
C450        C  0.71196067  0.83287829  0.40954895     0.87740
C451        C  0.70583759  0.90938847  0.33838779     0.87760
C452        C  0.62610971  0.82042853  0.39675985     0.87930
O453        O  0.31896715  0.86990635  0.13726455    -0.74380
O454        O  0.37179814  0.92179160  0.06954242    -0.74410
O455        O  0.31931862  0.86745239  0.07099819    -0.74460
O456        O  0.36779806  0.92143555  0.13610760    -0.74510
O457        O  0.41555920  0.88303053  0.13648010    -0.74440
O458        O  0.36555868  0.82809315  0.07200771    -0.74420
O459        O  0.41922287  0.88367653  0.06968712    -0.74400
O460        O  0.36701511  0.83187462  0.13817661    -0.74460
Ni461      Ni  0.34282595  0.89651195  0.10293375     1.25410
Ni462      Ni  0.39370635  0.85531514  0.10341052     1.25360
C463        C  0.33389243  0.84181306  0.14770655     0.87800
C464        C  0.40665170  0.91401924  0.06300456     0.87740
C465        C  0.33085251  0.83627647  0.06685040     0.87760
C466        C  0.39981309  0.91117622  0.14646822     0.87930
C467        C  0.21445671  0.99462585  0.50613895     0.03180
C468        C  0.23221068  0.02088661  0.48843674    -0.12970
C469        C  0.26399579  0.03578859  0.50133612     0.00680
C470        C  0.27833697  0.02379889  0.53194920    -0.11500
C471        C  0.26138510  0.99674061  0.54915550     0.03170
C472        C  0.22731242  0.98475544  0.53791763    -0.10920
H473        H  0.22420966  0.02685591  0.46274209     0.08770
H474        H  0.30503837  0.03286364  0.54010898     0.06300
H475        H  0.21419469  0.96377065  0.55120228     0.06140
C476        C  0.53293087  0.73780102  0.47846041     0.03180
C477        C  0.52208745  0.75585806  0.50791985    -0.12970
C478        C  0.49125181  0.74595252  0.52773130     0.00680
C479        C  0.47077988  0.71788504  0.51803274    -0.11500
C480        C  0.48052207  0.70074681  0.48798154     0.03170
C481        C  0.51279167  0.70958328  0.46923927    -0.10920
H482        H  0.53552741  0.77948194  0.51388465     0.08770
H483        H  0.44583288  0.71092289  0.53253661     0.06300
H484        H  0.52054106  0.69613996  0.44597761     0.06140
O485        O  0.34695027  0.88323400  0.63673355    -0.74380
O486        O  0.40274414  0.83390335  0.70362868    -0.74410
O487        O  0.34798528  0.88949669  0.70273303    -0.74460
O488        O  0.39754529  0.83177636  0.63758452    -0.74510
O489        O  0.44543260  0.86738091  0.63393954    -0.74440
O490        O  0.39048607  0.92907522  0.69495198    -0.74420
O491        O  0.44694567  0.87275450  0.70098699    -0.74400
O492        O  0.39390487  0.91950839  0.63001134    -0.74460
Ni493      Ni  0.37222214  0.85828474  0.67106580     1.25410
Ni494      Ni  0.42120401  0.89852614  0.66556510     1.25360
C495        C  0.36095604  0.90986994  0.62325351     0.87800
C496        C  0.43697541  0.84206399  0.70795758     0.87740
C497        C  0.35607850  0.92119389  0.70104542     0.87760
C498        C  0.42919960  0.84026148  0.62484601     0.87930
O499        O  0.38198454  0.12607000  0.41647611    -0.74380
O500        O  0.43394716  0.18695169  0.35730202    -0.74410
O501        O  0.37993603  0.19308832  0.41069320    -0.74460
O502        O  0.43416992  0.12103535  0.36596649    -0.74510
O503        O  0.38952545  0.11877404  0.32738512    -0.74440
O504        O  0.33251581  0.18953312  0.37546849    -0.74420
O505        O  0.38853993  0.18479547  0.31981461    -0.74400
O506        O  0.33650771  0.12268360  0.37880752    -0.74460
Ni507      Ni  0.40895030  0.15735943  0.38894412     1.25410
Ni508      Ni  0.35990839  0.15435489  0.34894108     1.25360
C509        C  0.35041882  0.11491463  0.40745946     0.87800
C510        C  0.42304776  0.18993147  0.32661713     0.87740
C511        C  0.34509068  0.19814031  0.40441407     0.87760
C512        C  0.42231781  0.11041238  0.33782281     0.87930
O513        O  0.12630132  0.82657046  0.38361990    -0.74380
O514        O  0.05288532  0.88060495  0.43428344    -0.74410
O515        O  0.05298383  0.82779259  0.38230386    -0.74460
O516        O  0.12633538  0.87598128  0.43189074    -0.74510
O517        O  0.12620209  0.91661544  0.39202913    -0.74440
O518        O  0.05572542  0.86721394  0.34191464    -0.74420
O519        O  0.05300422  0.91875885  0.39269046    -0.74400
O520        O  0.12871700  0.86751465  0.34413124    -0.74460
Ni521      Ni  0.08897829  0.85122882  0.40961323     1.25410
Ni522      Ni  0.09046636  0.89397841  0.36630510     1.25360
C523        C  0.13698796  0.83737947  0.35441249     0.87800
C524        C  0.04802537  0.91153982  0.42417346     0.87740
C525        C  0.04916327  0.83644967  0.35109677     0.87760
C526        C  0.13651120  0.90507313  0.42071869     0.87930
O527        O  0.78844651  0.03753037  0.16811056    -0.80840
O528        O  0.72012858  0.93623011  0.28309700    -0.65530
O529        O  0.74057109  0.01057341  0.21912983    -1.12130
C530        C  0.80462579  0.05266071  0.31141221     1.06050
O531        O  0.71492254  0.96840542  0.32958947    -0.78740
O532        O  0.69963630  0.03274245  0.29989385    -0.66320
Ni533      Ni  0.76233171  0.99595240  0.17628251     1.34870
C534        C  0.70233360  0.05832397  0.27973888     0.84780
O535        O  0.69293599  0.95597854  0.21811454    -0.79280
O536        O  0.73473398  0.95484056  0.17622329    -0.89550
C537        C  0.71526527  0.93924028  0.31545631     0.84360
O538        O  0.80455956  0.97379476  0.19874889    -0.67750
O539        O  0.77089441  0.04993369  0.32197591    -0.87040
C540        C  0.80144168  0.94729000  0.21751611     0.85190
C541        C  0.70070430  0.95320270  0.18626250     1.06750
H542        H  0.78613276  0.98116783  0.28215917     0.38560
O543        O  0.76376189  0.99518088  0.27866807    -1.09700
O544        O  0.73341664  0.06392598  0.26384671    -0.66350
Ni545      Ni  0.77485676  0.03282949  0.24797650     1.26350
O546        O  0.77053277  0.94169158  0.23364229    -0.66580
O547        O  0.81153725  0.05049204  0.27943490    -0.78870
C548        C  0.78943352  0.06646628  0.18250778     0.84570
O549        O  0.78446048  0.06950685  0.21481169    -0.66050
Ni550      Ni  0.74207988  0.00955099  0.32160281     1.27450
Ni551      Ni  0.72947512  0.97304557  0.24985515     1.26060
H552        H  0.71820767  0.02455373  0.21552270     0.39110
O553        O  0.72428068  0.17175109  0.96756849    -0.80840
O554        O  0.82441412  0.28883750  0.03182915    -0.65530
O555        O  0.74692079  0.22486271  0.00958724    -1.12130
C556        C  0.70589259  0.31374494  0.93947015     1.06050
O557        O  0.79335865  0.33767012  0.02042088    -0.78740
O558        O  0.72345592  0.30958823  0.03568181    -0.66320
Ni559      Ni  0.76583227  0.18065316  0.99586804     1.34870
C560        C  0.69551970  0.28979547  0.03502575     0.84780
O561        O  0.79963564  0.22667144  0.05947287    -0.79280
O562        O  0.80633642  0.18173039  0.02682351    -0.89550
C563        C  0.82244383  0.32160370  0.03054990     0.84360
O564        O  0.79460974  0.20070031  0.95826096    -0.67750
O565        O  0.70530087  0.32566492  0.96932763    -0.87040
C566        C  0.82152063  0.22142553  0.96072264     0.85190
C567        C  0.80308023  0.19417068  0.05660912     1.06750
H568        H  0.78363361  0.28355444  0.96467974     0.38560
O569        O  0.76613918  0.28252533  0.98382524    -1.09700
O570        O  0.68936997  0.27193765  0.00849847    -0.66350
Ni571      Ni  0.72552481  0.25183894  0.97415455     1.26350
O572        O  0.82559627  0.23748904  0.98862368    -0.66580
O573        O  0.70939052  0.28126182  0.93611063    -0.78870
C574        C  0.69161423  0.18523529  0.96459483     0.84570
O575        O  0.68627344  0.21796013  0.96637706    -0.66050
Ni576      Ni  0.74911903  0.32785978  0.99595684     1.27450
Ni577      Ni  0.78607814  0.25588060  0.02082456     1.26060
H578        H  0.72944183  0.22252182  0.02859851     0.39110
C579        C  0.21764244  0.26013950  0.75533705     0.03180
C580        C  0.23313444  0.27872650  0.72871237    -0.12970
C581        C  0.26440305  0.26564413  0.71078998     0.00680
C582        C  0.27872567  0.23280888  0.71768367    -0.11500
C583        C  0.26365300  0.21437897  0.74496870     0.03170
C584        C  0.23202569  0.22778026  0.76286122    -0.10920
H585        H  0.22292539  0.30459426  0.72380267     0.08770
H586        H  0.30336136  0.22299807  0.70369723     0.06300
H587        H  0.22081740  0.21489743  0.78509983     0.06140
C588        C  0.53616846  0.24634849  0.97481100     0.03180
C589        C  0.52159268  0.21674038  0.96171008    -0.12970
C590        C  0.49135571  0.20144091  0.97836863     0.00680
C591        C  0.47914290  0.21305949  0.01048016    -0.11500
C592        C  0.49552745  0.24160246  0.02462160     0.03170
C593        C  0.52478433  0.25751782  0.00706430    -0.10920
H594        H  0.52994717  0.20849624  0.93628943     0.08770
H595        H  0.45444388  0.20242644  0.02267580     0.06300
H596        H  0.53523597  0.28137901  0.01636690     0.06140
C597        C  0.49171099  0.53985521  0.75402456     0.03180
C598        C  0.47506419  0.52686558  0.72518800    -0.12970
C599        C  0.49519522  0.50391673  0.70386109     0.00680
C600        C  0.53269690  0.49547218  0.71050548    -0.11500
C601        C  0.54731045  0.50378888  0.74178497     0.03170
C602        C  0.52773926  0.52789723  0.76241620    -0.10920
H603        H  0.44549895  0.53222473  0.72117729     0.08770
H604        H  0.54814518  0.47746917  0.69408668     0.06300
H605        H  0.53878939  0.53499366  0.78658164     0.06140
C606        C  0.26625357  0.49383020  0.04266011     0.03180
C607        C  0.23997984  0.47647419  0.02419008    -0.12970
C608        C  0.22329627  0.49165930  0.99630605     0.00680
C609        C  0.23331521  0.52430726  0.98633150    -0.11500
C610        C  0.26078172  0.54150951  0.00372061     0.03170
C611        C  0.27580559  0.52689102  0.03305463    -0.10920
H612        H  0.23508834  0.44979099  0.02949680     0.08770
H613        H  0.22249541  0.53459356  0.96292257     0.06300
H614        H  0.29749144  0.53978208  0.04638267     0.06140
O615        O  0.37419680  0.63908786  0.83666826    -0.74380
O616        O  0.32459926  0.71159161  0.88813986    -0.74410
O617        O  0.38113791  0.70488396  0.83148284    -0.74460
O618        O  0.32353062  0.64414002  0.88911990    -0.74510
O619        O  0.37178708  0.64038616  0.92399997    -0.74440
O620        O  0.42446189  0.70545520  0.87076596    -0.74420
O621        O  0.36845064  0.70690333  0.92681934    -0.74400
O622        O  0.42202412  0.63848371  0.87217899    -0.74460
Ni623      Ni  0.34905004  0.67579711  0.86000991     1.25410
Ni624      Ni  0.39839006  0.67355643  0.89972217     1.25360
C625        C  0.40651375  0.62775352  0.84545199     0.87800
C626        C  0.33406432  0.71428535  0.91935281     0.87740
C627        C  0.41573226  0.70854116  0.83940170     0.87760
C628        C  0.33904379  0.63194139  0.91570152     0.87930
O629        O  0.62983542  0.32910597  0.86172390    -0.74380
O630        O  0.70959168  0.38466793  0.82877328    -0.74410
O631        O  0.70031170  0.32943101  0.87904813    -0.74460
O632        O  0.63864066  0.38018210  0.81601437    -0.74510
O633        O  0.62513438  0.41880538  0.85660195    -0.74440
O634        O  0.68605201  0.36866536  0.91842596    -0.74420
O635        O  0.69593621  0.42195333  0.87000250    -0.74400
O636        O  0.61511754  0.36798363  0.90177805    -0.74460
Ni637      Ni  0.67084043  0.35432339  0.84503461     1.25410
Ni638      Ni  0.65554273  0.39563530  0.88826795     1.25360
C639        C  0.61041154  0.33909580  0.88778655     0.87800
C640        C  0.70847170  0.41563176  0.83971233     0.87740
C641        C  0.69777056  0.33827090  0.91060771     0.87760
C642        C  0.62364352  0.40872985  0.82590713     0.87930
O643        O  0.33505936  0.37584341  0.60872849    -0.74380
O644        O  0.39292763  0.42039543  0.53856712    -0.74410
O645        O  0.33668527  0.36563833  0.54310066    -0.74460
O646        O  0.38535332  0.42558663  0.60431968    -0.74510
O647        O  0.43193068  0.38658618  0.60923997    -0.74440
O648        O  0.38384680  0.32780275  0.54742983    -0.74420
O649        O  0.43854940  0.38090998  0.54276985    -0.74400
O650        O  0.38181869  0.33671952  0.61307991    -0.74460
Ni651      Ni  0.36078785  0.39826110  0.57257223     1.25410
Ni652      Ni  0.41075679  0.35660257  0.57767199     1.25360
C653        C  0.34923437  0.34870251  0.62179811     0.87800
C654        C  0.42823131  0.41180013  0.53590898     0.87740
C655        C  0.34894310  0.33433308  0.54169428     0.87760
C656        C  0.41648467  0.41559643  0.61689885     0.87930
O657        O  0.33761246  0.37437704  0.13387060    -0.74380
O658        O  0.39356095  0.31581381  0.19433088    -0.74410
O659        O  0.33636546  0.37026636  0.20023561    -0.74460
O660        O  0.38866680  0.32299054  0.12866221    -0.74510
O661        O  0.43708365  0.35763056  0.13221137    -0.74440
O662        O  0.37769074  0.41148843  0.19791532    -0.74420
O663        O  0.43547023  0.35614183  0.19949553    -0.74400
O664        O  0.38564997  0.40972512  0.13187837    -0.74460
Ni665      Ni  0.36240053  0.34444539  0.16496169     1.25410
Ni666      Ni  0.41080234  0.38511667  0.16618842     1.25360
C667        C  0.35291087  0.40169191  0.12300124     0.87800
C668        C  0.42722775  0.32439387  0.20115230     0.87740
C669        C  0.34374840  0.40190524  0.20397873     0.87760
C670        C  0.42136362  0.33190457  0.11908915     0.87930
O671        O  0.37065703  0.10669899  0.82131120    -0.74380
O672        O  0.41333999  0.03651868  0.87686630    -0.74410
O673        O  0.36149137  0.04087626  0.82040424    -0.74460
O674        O  0.41712903  0.10298179  0.87343646    -0.74510
O675        O  0.36816970  0.10801868  0.91017803    -0.74440
O676        O  0.31386188  0.04487322  0.85804528    -0.74420
O677        O  0.36427254  0.04157863  0.91289781    -0.74400
O678        O  0.32131964  0.11150442  0.85756970    -0.74460
Ni679      Ni  0.39245993  0.07075011  0.84666193     1.25410
Ni680      Ni  0.34010152  0.07615727  0.88598131     1.25360
C681        C  0.33868455  0.11990604  0.83008407     0.87800
C682        C  0.39914190  0.03370778  0.90707084     0.87740
C683        C  0.32604396  0.03892417  0.82761653     0.87760
C684        C  0.40147947  0.11534388  0.90050126     0.87930
O685        O  0.12793455  0.42074894  0.88343802    -0.74380
O686        O  0.04809353  0.37969005  0.83788176    -0.74410
O687        O  0.05474791  0.42985580  0.88880818    -0.74460
O688        O  0.12137211  0.37385522  0.83445769    -0.74510
O689        O  0.12179172  0.33345951  0.87468316    -0.74440
O690        O  0.05052527  0.38748806  0.92630452    -0.74420
O691        O  0.04855020  0.33621855  0.87432924    -0.74400
O692        O  0.12376827  0.38073291  0.92377478    -0.74460
Ni693      Ni  0.08757806  0.40255426  0.85969196     1.25410
Ni694      Ni  0.08542286  0.35800882  0.90132841     1.25360
C695        C  0.13763242  0.40814449  0.91190780     0.87800
C696        C  0.04148190  0.34831209  0.84488253     0.87740
C697        C  0.04816937  0.41953877  0.91911347     0.87760
C698        C  0.13167001  0.34446322  0.84538963     0.87930
C699        C  0.73919990  0.78977233  0.25884601     0.03180
C700        C  0.77534580  0.77948881  0.24848719    -0.12970
C701        C  0.79262994  0.75146982  0.26392792     0.00680
C702        C  0.77707979  0.73831746  0.29394567    -0.11500
C703        C  0.74090217  0.74921026  0.30489872     0.03170
C704        C  0.72241806  0.77586387  0.28788205    -0.10920
H705        H  0.78644552  0.78876447  0.22436179     0.08770
H706        H  0.78973896  0.71533301  0.30465380     0.06300
H707        H  0.69333931  0.78256070  0.29449038     0.06140
O708        O  0.62807381  0.65941625  0.38878037    -0.74380
O709        O  0.57355642  0.61143596  0.45861499    -0.74410
O710        O  0.63162832  0.66586329  0.45435257    -0.74460
O711        O  0.57800786  0.60952593  0.39186554    -0.74510
O712        O  0.62720528  0.57276196  0.39026954    -0.74440
O713        O  0.67356578  0.62343550  0.45953006    -0.74420
O714        O  0.61677809  0.56961207  0.45599065    -0.74400
O715        O  0.67712952  0.62282725  0.39323865    -0.74460
Ni716      Ni  0.60095621  0.63806236  0.42425595     1.25410
Ni717      Ni  0.65032803  0.59571188  0.42566411     1.25360
C718        C  0.66166310  0.64979504  0.38071767     0.87800
C719        C  0.58197328  0.57924305  0.46124919     0.87740
C720        C  0.66565946  0.65578811  0.46091647     0.87760
C721        C  0.59466679  0.58213776  0.38058094     0.87930
C722        C  0.79577959  0.52002615  0.00358124     0.03180
C723        C  0.77933666  0.53631790  0.97604734    -0.12970
C724        C  0.74676953  0.52359865  0.96245361     0.00680
C725        C  0.73194463  0.49349929  0.97570317    -0.11500
C726        C  0.75021723  0.47554900  0.00150104     0.03170
C727        C  0.78365843  0.48796227  0.01380576    -0.10920
H728        H  0.78954033  0.56077478  0.96763207     0.08770
H729        H  0.70459710  0.48562866  0.96793420     0.06300
H730        H  0.79789391  0.47483187  0.03418240     0.06140
C731        C  0.45081954  0.74680091  0.00836159     0.03180
C732        C  0.46062352  0.73760354  0.97505437    -0.12970
C733        C  0.49421242  0.74892975  0.96018043     0.00680
C734        C  0.51387440  0.77432929  0.97675869    -0.11500
C735        C  0.50128427  0.78642768  0.00856158     0.03170
C736        C  0.46971844  0.77254076  0.02429794    -0.10920
H737        H  0.44470557  0.71823059  0.96284967     0.08770
H738        H  0.54052590  0.78284016  0.96648633     0.06300
H739        H  0.46276415  0.77871371  0.05060434     0.06140
C740        C  0.51855467  0.49460559  0.29184726     0.03180
C741        C  0.53316489  0.46466610  0.27638970    -0.12970
C742        C  0.52011057  0.45473946  0.24484729     0.00680
C743        C  0.49021353  0.47291929  0.23043945    -0.11500
C744        C  0.47428255  0.50169459  0.24655222     0.03170
C745        C  0.48802169  0.51209569  0.27742245    -0.10920
H746        H  0.55663172  0.45075431  0.28731487     0.08770
H747        H  0.48192118  0.46676601  0.20496748     0.06300
H748        H  0.47702243  0.53579657  0.28842645     0.06140
O749        O  0.36833304  0.61586419  0.17659054    -0.74380
O750        O  0.29551740  0.66527622  0.12466399    -0.74410
O751        O  0.29454833  0.61269782  0.17428491    -0.74460
O752        O  0.36815887  0.66538829  0.12888179    -0.74510
O753        O  0.37192235  0.62605443  0.08772746    -0.74440
O754        O  0.30249105  0.57017977  0.13742971    -0.74420
O755        O  0.29854387  0.62331262  0.08660860    -0.74400
O756        O  0.37509425  0.57659203  0.13554440    -0.74460
Ni757      Ni  0.33092023  0.64109070  0.15271064     1.25410
Ni758      Ni  0.33662673  0.59756039  0.11021950     1.25360
C759        C  0.38287647  0.58793928  0.16475702     0.87800
C760        C  0.29145155  0.65487437  0.09424256     0.87740
C761        C  0.29275670  0.58083511  0.16724894     0.87760
C762        C  0.37995353  0.65524988  0.09965540     0.87930
O763        O  0.58527130  0.36722625  0.11760103    -0.74380
O764        O  0.63296336  0.29972163  0.05887905    -0.74410
O765        O  0.58132013  0.30099442  0.11597138    -0.74460
O766        O  0.63433603  0.36670570  0.06367027    -0.74510
O767        O  0.68187768  0.36136479  0.09933680    -0.74440
O768        O  0.62728725  0.29697338  0.15275612    -0.74420
O769        O  0.67982284  0.29473398  0.09473351    -0.74400
O770        O  0.63346544  0.36291776  0.15264642    -0.74460
Ni771      Ni  0.60672606  0.33327413  0.08767152     1.25410
Ni772      Ni  0.65745399  0.32807630  0.12602762     1.25360
C773        C  0.60099783  0.37495621  0.14524637     0.87800
C774        C  0.66760177  0.29223817  0.06445827     0.87740
C775        C  0.59229669  0.29493416  0.14617244     0.87760
C776        C  0.66690971  0.37468456  0.07315965     0.87930
O777        O  0.62949433  0.59329249  0.86045436    -0.74380
O778        O  0.57883435  0.64112782  0.78900312    -0.74410
O779        O  0.63954863  0.58819302  0.79513869    -0.74460
O780        O  0.57486947  0.64179338  0.85546833    -0.74510
O781        O  0.61797266  0.68199690  0.85690072    -0.74440
O782        O  0.68132877  0.62892219  0.79470654    -0.74420
O783        O  0.62030359  0.68199884  0.79096969    -0.74400
O784        O  0.67283181  0.63338554  0.86107211    -0.74460
Ni785      Ni  0.60416192  0.61463122  0.82415145     1.25410
Ni786      Ni  0.64983209  0.65802122  0.82508704     1.25360
C787        C  0.65956869  0.60527400  0.87194181     0.87800
C788        C  0.58634571  0.67299955  0.78584144     0.87740
C789        C  0.67415188  0.59694334  0.79234834     0.87760
C790        C  0.58595097  0.67062461  0.86590583     0.87930
O791        O  0.87209977  0.63949166  0.17278688    -0.74380
O792        O  0.95044042  0.58589813  0.13033533    -0.74410
O793        O  0.94460969  0.63652729  0.18145053    -0.74460
O794        O  0.87754042  0.59243155  0.12344114    -0.74510
O795        O  0.88483272  0.63403101  0.08511968    -0.74440
O796        O  0.95320558  0.67730371  0.14277530    -0.74420
O797        O  0.95738499  0.62656887  0.09125953    -0.74400
O798        O  0.88055712  0.68168472  0.13528987    -0.74460
Ni799      Ni  0.91137161  0.61207461  0.15345147     1.25410
Ni800      Ni  0.91978580  0.65637147  0.11216580     1.25360
C801        C  0.86532262  0.66985920  0.16244429     0.87800
C802        C  0.96030666  0.59509477  0.10034618     0.87740
C803        C  0.95409367  0.66698524  0.17358812     0.87760
C804        C  0.87134526  0.60552952  0.09432263     0.87930
O805        O  0.57569198  0.88191262  0.12016779    -0.74380
O806        O  0.63687734  0.94379016  0.16852670    -0.74410
O807        O  0.58367790  0.94811872  0.11545848    -0.74460
O808        O  0.62453884  0.87787296  0.17092559    -0.74510
O809        O  0.67190494  0.86806717  0.13333249    -0.74440
O810        O  0.63115838  0.93927465  0.07815664    -0.74420
O811        O  0.68367172  0.93404310  0.13112400    -0.74400
O812        O  0.62342550  0.87282509  0.08289803    -0.74460
Ni813      Ni  0.60356134  0.91377858  0.14516451     1.25410
Ni814      Ni  0.65427569  0.90378927  0.10492642     1.25360
C815        C  0.58989435  0.86746018  0.09342390     0.87800
C816        C  0.67212563  0.94393850  0.16073730     0.87740
C817        C  0.59744174  0.95030559  0.08522665     0.87760
C818        C  0.65509122  0.86230331  0.16169652     0.87930
O819        O  0.80253951  0.54485115  0.68928489    -0.80840
O820        O  0.72195345  0.44226712  0.78444237    -0.65530
O821        O  0.74252794  0.52228574  0.72872026    -1.12130
C822        C  0.81061340  0.54933453  0.82723822     1.06050
O823        O  0.70684584  0.47527755  0.82809742    -0.78740
O824        O  0.70242464  0.54372317  0.81289879    -0.66320
Ni825      Ni  0.76177636  0.51578556  0.68307362     1.34870
C826        C  0.70612037  0.56956569  0.79328766     0.84780
O827        O  0.69622352  0.46466399  0.71932792    -0.79280
O828        O  0.72084588  0.48777693  0.67165590    -0.89550
C829        C  0.71475831  0.44560229  0.81635373     0.84360
O830        O  0.79605705  0.47791580  0.69190410    -0.66950
O831        O  0.77754098  0.54614318  0.84021266    -0.87040
C832        C  0.79722756  0.45425017  0.71397961     0.85190
C833        C  0.69570179  0.47062579  0.68688494     1.06750
H834        H  0.78524226  0.48699556  0.78990929     0.38560
O835        O  0.76321676  0.50160079  0.78688992    -1.09700
O836        O  0.73739027  0.57373179  0.77731929    -0.66350
Ni837      Ni  0.77714790  0.54090334  0.76065258     1.26350
O838        O  0.77265761  0.45239657  0.73788410    -0.66580
O839        O  0.81468307  0.55263869  0.79473350    -0.78870
C840        C  0.79772555  0.57509539  0.69983875     0.84570
O841        O  0.78926123  0.57963451  0.73118234    -0.66050
Ni842      Ni  0.74104369  0.51186526  0.83067295     1.27450
Ni843      Ni  0.73067245  0.48152695  0.75442511     1.26060
H844        H  0.72011625  0.53675950  0.72779961     0.39110
O845        O  0.95167017  0.04279996  0.57222795    -0.80840
O846        O  0.03771510  0.93755053  0.48036064    -0.65530
O847        O  0.01202262  0.01854582  0.53394417    -1.12130
C848        C  0.94351560  0.04875190  0.43422752     1.06050
O849        O  0.05046002  0.97033733  0.43738549    -0.78740
O850        O  0.04815741  0.03823584  0.44404998    -0.66320
Ni851      Ni  0.99228149  0.01137188  0.57912884     1.34870
C852        C  0.04548735  0.06368264  0.46415730     0.84780
O853        O  0.06392585  0.96423031  0.54284871    -0.79280
O854        O  0.03474882  0.98240223  0.59112478    -0.89550
C855        C  0.04347061  0.94085118  0.44850785     0.84360
O856        O  0.95848529  0.97459284  0.56864130    -0.67750
O857        O  0.97331087  0.03680959  0.41936051    -0.87040
C858        C  0.96016734  0.95018182  0.54718578     0.85190
C859        C  0.06404416  0.97070537  0.57509617     1.06750
H860        H  0.97003170  0.98333573  0.47468969     0.38560
O861        O  0.99171299  0.99744122  0.47628673    -1.09700
O862        O  0.01701424  0.06809003  0.48419654    -0.66350
Ni863      Ni  0.97742109  0.03826855  0.50162629     1.26350
O864        O  0.98735779  0.94749568  0.52567522    -0.66580
O865        O  0.94116150  0.05290204  0.46683690    -0.78870
C866        C  0.95709627  0.07319855  0.56267219     0.84570
O867        O  0.96498312  0.07799868  0.53118434    -0.66050
Ni868      Ni  0.01238604  0.00438354  0.43132999     1.27450
Ni869      Ni  0.02644510  0.97789740  0.50869569     1.26060
H870        H  0.03369556  0.03267653  0.53544097     0.39110
C871        C  0.45666242  0.01191572  0.73993010     0.03180
C872        C  0.47067289  0.97991300  0.72912105    -0.12970
C873        C  0.50495051  0.96702562  0.74107616     0.00680
C874        C  0.52180362  0.98368094  0.76787153    -0.11500
C875        C  0.50639051  0.01460266  0.78033425     0.03170
C876        C  0.47355760  0.02833003  0.76664769    -0.10920
H877        H  0.45778331  0.96745726  0.70805673     0.08770
H878        H  0.54886494  0.97464703  0.77668529     0.06300
H879        H  0.46397757  0.05389756  0.77392738     0.06140
C880        C  0.78797541  0.02853122  0.49919452     0.03180
C881        C  0.77829539  0.99739324  0.51360021    -0.12970
C882        C  0.74723575  0.98022399  0.50241959     0.00680
C883        C  0.72787548  0.99257079  0.47432543    -0.11500
C884        C  0.73860255  0.02299060  0.45875403     0.03170
C885        C  0.76900477  0.04060189  0.47105879    -0.10920
H886        H  0.79205716  0.98841120  0.53621907     0.08770
H887        H  0.70324020  0.97981099  0.46595956     0.06300
H888        H  0.77601890  0.06525586  0.46052363     0.06140
C889        C  0.47654944  0.24745368  0.50530468     0.03180
C890        C  0.49840597  0.27207823  0.51931748    -0.12970
C891        C  0.52937911  0.28444483  0.50135823     0.00680
C892        C  0.53928121  0.27093404  0.46935738    -0.11500
C893        C  0.51671240  0.24615954  0.45488895     0.03170
C894        C  0.48365272  0.23674652  0.47207165    -0.10920
H895        H  0.49322185  0.27955157  0.54557454     0.08770
H896        H  0.56523822  0.27837749  0.45684676     0.06300
H897        H  0.46535853  0.21837229  0.46114502     0.06140
O898        O  0.62535521  0.08650162  0.34998431    -0.74380
O899        O  0.57885067  0.12949898  0.27413859    -0.74410
O900        O  0.63624204  0.07631422  0.28472657    -0.74460
O901        O  0.57346360  0.13620574  0.34071387    -0.74510
O902        O  0.61928013  0.17398817  0.34005872    -0.74440
O903        O  0.67851648  0.11672053  0.27959069    -0.74420
O904        O  0.62103169  0.17004338  0.27407933    -0.74400
O905        O  0.67154205  0.12380670  0.34604463    -0.74460
Ni906      Ni  0.60178686  0.10561765  0.31165716     1.25410
Ni907      Ni  0.64933795  0.14746082  0.30916109     1.25360
C908        C  0.65644765  0.09776204  0.35985813     0.87800
C909        C  0.58724404  0.16085818  0.26920501     0.87740
C910        C  0.67055225  0.08493387  0.27928040     0.87760
C911        C  0.58682159  0.16457893  0.35010554     0.87930
O912        O  0.36102613  0.13232097  0.66736941    -0.74380
O913        O  0.29467135  0.18702736  0.61277930    -0.74410
O914        O  0.28819082  0.13227679  0.66146667    -0.74460
O915        O  0.36779886  0.18276957  0.62103691    -0.74510
O916        O  0.37305421  0.14363254  0.57981146    -0.74440
O917        O  0.29514076  0.09216213  0.62202910    -0.74420
O918        O  0.30047599  0.14824679  0.57176316    -0.74400
O919        O  0.36764673  0.09375881  0.62572025    -0.74460
Ni920      Ni  0.32701280  0.16005344  0.64212005     1.25410
Ni921      Ni  0.33336316  0.11810579  0.59811577     1.25360
C922        C  0.37429707  0.10384638  0.65573044     0.87800
C923        C  0.29374031  0.17953438  0.58109657     0.87740
C924        C  0.28728718  0.10054794  0.65298232     0.87760
C925        C  0.38306901  0.17132544  0.59343514     0.87930
C926        C  0.75582028  0.30931092  0.76970864     0.03180
C927        C  0.78626625  0.29083689  0.75529863    -0.12970
C928        C  0.79700413  0.25916458  0.76874626     0.00680
C929        C  0.77996377  0.24812029  0.79894977    -0.11500
C930        C  0.75026537  0.26748958  0.81428531     0.03170
C931        C  0.73962324  0.29906549  0.80046633    -0.10920
H932        H  0.79644815  0.29783434  0.73009064     0.08770
H933        H  0.78626113  0.22236708  0.80764328     0.06300
H934        H  0.71451620  0.31253140  0.81014239     0.06140
O935        O  0.68969097  0.38368309  0.63720173    -0.74380
O936        O  0.62717897  0.43791662  0.57801771    -0.74410
O937        O  0.67852268  0.45013695  0.63218905    -0.74460
O938        O  0.64218475  0.37264397  0.58594961    -0.74510
O939        O  0.59176919  0.37357912  0.62107626    -0.74440
O940        O  0.63572995  0.44426291  0.67376621    -0.74420
O941        O  0.58283561  0.44001348  0.61884424    -0.74400
O942        O  0.63988906  0.37747702  0.67230810    -0.74460
Ni943      Ni  0.66118655  0.41173420  0.60696062     1.25410
Ni944      Ni  0.61070093  0.40932179  0.64789317     1.25360
C945        C  0.67450131  0.37197385  0.66448613     0.87800
C946        C  0.59237599  0.44243618  0.58717206     0.87740
C947        C  0.66795223  0.45490343  0.66341544     0.87760
C948        C  0.60949037  0.36252147  0.59435307     0.87930
O949        O  0.59265536  0.87344464  0.62937117    -0.74380
O950        O  0.65195339  0.80622990  0.57984237    -0.74410
O951        O  0.59541917  0.80677702  0.63341264    -0.74460
O952        O  0.64537883  0.87256515  0.57914727    -0.74510
O953        O  0.69042840  0.87474667  0.61741712    -0.74440
O954        O  0.63774656  0.81030723  0.67346161    -0.74420
O955        O  0.69567624  0.80733102  0.61894083    -0.74400
O956        O  0.63733009  0.87630637  0.66790721    -0.74460
Ni957      Ni  0.61978603  0.83902037  0.60412714     1.25410
Ni958      Ni  0.66717561  0.84154739  0.64581312     1.25360
C959        C  0.60490117  0.88502480  0.65714623     0.87800
C960        C  0.68638918  0.80166766  0.58812841     0.87740
C961        C  0.60382007  0.80494920  0.66488370     0.87760
C962        C  0.67623917  0.88403773  0.58925549     0.87930
O963        O  0.87010762  0.14174673  0.67316258    -0.74380
O964        O  0.94358346  0.09190655  0.61941876    -0.74410
O965        O  0.94360939  0.13997057  0.67334845    -0.74460
O966        O  0.87033045  0.09673885  0.62120211    -0.74510
O967        O  0.87040479  0.14089729  0.58515347    -0.74440
O968        O  0.94763717  0.18170960  0.63534735    -0.74420
O969        O  0.94379456  0.13271134  0.58023762    -0.74400
O970        O  0.87431423  0.18599480  0.63751590    -0.74460
Ni971      Ni  0.90732270  0.11605609  0.64808421     1.25410
Ni972      Ni  0.90965553  0.16191926  0.60809177     1.25360
C973        C  0.86235285  0.17274535  0.66541560     0.87800
C974        C  0.94933554  0.10117183  0.58849528     0.87740
C975        C  0.95125573  0.17096411  0.66586919     0.87760
C976        C  0.85999698  0.11113075  0.59376467     0.87930
O977        O  0.62116772  0.17877478  0.88658264    -0.74380
O978        O  0.57369874  0.11388240  0.94578315    -0.74410
O979        O  0.62678858  0.16956950  0.95203595    -0.74460
O980        O  0.57248498  0.12732003  0.88086622    -0.74510
O981        O  0.62179027  0.09178360  0.87069404    -0.74440
O982        O  0.67288576  0.13078422  0.94427206    -0.74420
O983        O  0.62153150  0.07711678  0.93564104    -0.74400
O984        O  0.67037804  0.14248376  0.87938985    -0.74460
Ni985      Ni  0.59669125  0.14866134  0.91728686     1.25410
Ni986      Ni  0.64827961  0.10911008  0.90761986     1.25360
C987        C  0.65453817  0.17185059  0.87543097     0.87800
C988        C  0.58701980  0.08291600  0.94479281     0.87740
C989        C  0.66174616  0.16073096  0.95430056     0.87760
C990        C  0.58821308  0.10210777  0.86482575     0.87930
C991        C  0.01336659  0.80843195  0.51431158     0.03180
C992        C  0.97692983  0.80493139  0.52757082    -0.12970
C993        C  0.95650285  0.77644231  0.51891108     0.00680
C994        C  0.97016530  0.75528103  0.49223397    -0.11500
C995        C  0.00583355  0.75990789  0.47762433     0.03170
C996        C  0.02727087  0.78677584  0.48869786    -0.10920
H997        H  0.96726582  0.82111069  0.54852665     0.08770
H998        H  0.95553321  0.73252976  0.48566330     0.06300
H999        H  0.05652164  0.78830115  0.48053687     0.06140
O1000       O  0.13089807  0.57843294  0.39958681    -0.74380
O1001       O  0.07741715  0.62494935  0.33030261    -0.74410
O1002       O  0.13308417  0.57048789  0.33358806    -0.74460
O1003       O  0.07808856  0.62907920  0.39674933    -0.74510
O1004       O  0.12425580  0.66645613  0.39342044    -0.74440
O1005       O  0.17588369  0.61034055  0.32703838    -0.74420
O1006       O  0.12000611  0.66526966  0.32758602    -0.74400
O1007       O  0.17717624  0.61537139  0.39326081    -0.74460
Ni1008     Ni  0.10318123  0.59934614  0.36471184     1.25410
Ni1009     Ni  0.15101899  0.64067854  0.35966433     1.25360
C1010       C  0.16357060  0.58846930  0.40657050     0.87800
C1011       C  0.08657330  0.65551114  0.32238959     0.87740
C1012       C  0.16648630  0.57895758  0.32463419     0.87760
C1013       C  0.09185375  0.65770768  0.40448141     0.87930
C1014       C  0.31656618  0.75637958  0.76166484     0.03180
C1015       C  0.29608061  0.74986016  0.79167703    -0.12970
C1016       C  0.25877866  0.76190888  0.79520176     0.00680
C1017       C  0.24537495  0.78737426  0.77359515    -0.11500
C1018       C  0.26667892  0.79629638  0.74480387     0.03170
C1019       C  0.30233961  0.78132196  0.73927466    -0.10920
H1020       H  0.30620410  0.73082231  0.80937927     0.08770
H1021       H  0.21649083  0.79668716  0.77652455     0.06300
H1022       H  0.31623251  0.78569987  0.71494490     0.06140
C1023       C  0.29996640  0.49507379  0.52783022     0.03180
C1024       C  0.28571862  0.46429725  0.53965635    -0.12970
C1025       C  0.25489027  0.45041387  0.52406779     0.00680
C1026       C  0.24172066  0.46470847  0.49397891    -0.11500
C1027       C  0.25481821  0.49617543  0.48285893     0.03170
C1028       C  0.28446784  0.51076786  0.49939972    -0.10920
H1029       H  0.29533491  0.45370691  0.56341375     0.08770
H1030       H  0.21754140  0.45401340  0.48224338     0.06300
H1031       H  0.29209978  0.53660594  0.49299649     0.06140
O1032       O  0.39500545  0.63024918  0.68116961    -0.74380
O1033       O  0.46360847  0.58178400  0.62100242    -0.74410
O1034       O  0.46715755  0.63382598  0.67240513    -0.74460
O1035       O  0.39082748  0.58055484  0.63394976    -0.74510
O1036       O  0.38128840  0.62045646  0.59424637    -0.74440
O1037       O  0.46115891  0.67102442  0.63014412    -0.74420
O1038       O  0.45317181  0.61883565  0.57935503    -0.74400
O1039       O  0.38879446  0.67062224  0.64144851    -0.74460
Ni1040     Ni  0.43000316  0.60502984  0.65338500     1.25410
Ni1041     Ni  0.42122996  0.64675221  0.60976933     1.25360
C1042       C  0.38387105  0.66003628  0.67193394     0.87800
C1043       C  0.46308506  0.58870031  0.58901917     0.87740
C1044       C  0.47028301  0.66424902  0.66091042     0.87760
C1045       C  0.37512205  0.59106581  0.60703246     0.87930
C1046       C  0.99707714  0.46491340  0.76346003     0.03180
C1047       C  0.00868230  0.47913174  0.79391252    -0.12970
C1048       C  0.99001870  0.50839604  0.80702092     0.00680
C1049       C  0.95680986  0.52019755  0.79285132    -0.11500
C1050       C  0.94857705  0.50980707  0.76024780     0.03170
C1051       C  0.96675578  0.48055998  0.74666841    -0.10920
H1052       H  0.03462677  0.47013038  0.80504831     0.08770
H1053       H  0.94387167  0.54361079  0.80295627     0.06300
H1054       H  0.96063364  0.47300562  0.72103005     0.06140
O1055       O  0.17161749  0.35808300  0.63728321    -0.74380
O1056       O  0.10723869  0.29471149  0.68308346    -0.74410
O1057       O  0.16661772  0.29271665  0.62857741    -0.74460
O1058       O  0.11783018  0.36066948  0.68733701    -0.74510
O1059       O  0.07309659  0.36854447  0.64924468    -0.74440
O1060       O  0.12135293  0.30148120  0.59164178    -0.74420
O1061       O  0.06423969  0.30234738  0.64381939    -0.74400
O1062       O  0.12668544  0.36749814  0.59962116    -0.74460
Ni1063     Ni  0.14235775  0.32540360  0.66056140     1.25410
Ni1064     Ni  0.09480597  0.33478523  0.61969969     1.25360
C1065       C  0.15962986  0.37235944  0.61037507     0.87800
C1066       C  0.07258439  0.29427003  0.67427995     0.87740
C1067       C  0.15532124  0.29178037  0.59779836     0.87760
C1068       C  0.08713950  0.37514929  0.67789990     0.87930
O1069       O  0.87675351  0.64611353  0.69022179    -0.74380
O1070       O  0.80305863  0.68620835  0.63141683    -0.74410
O1071       O  0.80512520  0.63490070  0.68477110    -0.74460
O1072       O  0.87432250  0.69520147  0.64078536    -0.74510
O1073       O  0.88535114  0.65652211  0.59975679    -0.74440
O1074       O  0.82170992  0.59478464  0.64675676    -0.74420
O1075       O  0.81436449  0.64338089  0.59527706    -0.74400
O1076       O  0.89308473  0.60904232  0.64893855    -0.74460
Ni1077     Ni  0.83876635  0.66710633  0.66332142     1.25410
Ni1078     Ni  0.85381651  0.62446339  0.62135006     1.25360
C1079       C  0.89525523  0.61957623  0.67937660     0.87800
C1080       C  0.80293840  0.67413255  0.60109262     0.87740
C1081       C  0.80748479  0.60329680  0.67592367     0.87760
C1082       C  0.88826807  0.68661769  0.61168540     0.87930
O1083       O  0.10236066  0.88886893  0.62143735    -0.74380
O1084       O  0.15289611  0.95294786  0.67582356    -0.74410
O1085       O  0.09247671  0.95502353  0.62809691    -0.74460
O1086       O  0.15735889  0.88670569  0.66547062    -0.74510
O1087       O  0.20106187  0.89564534  0.62486433    -0.74440
O1088       O  0.13178064  0.96029104  0.58378545    -0.74420
O1089       O  0.19293944  0.96277748  0.63292376    -0.74400
O1090       O  0.14547367  0.89488125  0.57967226    -0.74460
Ni1091     Ni  0.12477778  0.92134679  0.64929969     1.25410
Ni1092     Ni  0.16943869  0.92953391  0.60385267     1.25360
C1093       C  0.11555848  0.88167446  0.59172395     0.87800
C1094       C  0.18529440  0.96281613  0.66513293     0.87740
C1095       C  0.09796792  0.96221460  0.59653062     0.87760
C1096       C  0.18933837  0.87971958  0.65132990     0.87930
O1097       O  0.11960769  0.59275482  0.86909261    -0.74380
O1098       O  0.17902569  0.63827887  0.93232154    -0.74410
O1099       O  0.12321265  0.58660388  0.93451793    -0.74460
O1100       O  0.17155738  0.64182636  0.86623150    -0.74510
O1101       O  0.12532213  0.68148278  0.87163694    -0.74440
O1102       O  0.08201747  0.62963680  0.94318994    -0.74420
O1103       O  0.13639629  0.68087788  0.93694836    -0.74400
O1104       O  0.07356240  0.63230070  0.87731444    -0.74460
Ni1105     Ni  0.15018554  0.61345429  0.90068137     1.25410
Ni1106     Ni  0.10268059  0.65748014  0.90788453     1.25360
C1107       C  0.08599385  0.60374984  0.86512650     0.87800
C1108       C  0.17017046  0.66929107  0.94043602     0.87740
C1109       C  0.09111985  0.59785085  0.94615891     0.87760
C1110       C  0.15685695  0.67107049  0.85876680     0.87930
C1111       C  0.71399015  0.27462581  0.23808341     0.03180
C1112       C  0.72918629  0.27141916  0.20535157    -0.12970
C1113       C  0.75498731  0.24458216  0.19730497     0.00680
C1114       C  0.76219572  0.21930869  0.22163536    -0.11500
C1115       C  0.74735550  0.22311104  0.25479158     0.03170
C1116       C  0.72180183  0.24972943  0.26244334    -0.10920
H1117       H  0.72541621  0.29273547  0.18808285     0.08770
H1118       H  0.78371548  0.19968988  0.21636296     0.06300
H1119       H  0.71203297  0.25371312  0.28850705     0.06140
O1120       O  0.60115728  0.43622770  0.36143023    -0.74380
O1121       O  0.54376345  0.36776952  0.31696089    -0.74410
O1122       O  0.53412290  0.41233058  0.37553129    -0.74460
O1123       O  0.60977803  0.39472933  0.30653092    -0.74510
O1124       O  0.63345763  0.35345018  0.33967389    -0.74440
O1125       O  0.56035438  0.37484923  0.41052989    -0.74420
O1126       O  0.56605995  0.32911369  0.35317641    -0.74400
O1127       O  0.62712114  0.39520551  0.39351851    -0.74460
Ni1128     Ni  0.57062964  0.40412488  0.33898670     1.25410
Ni1129     Ni  0.59714155  0.36135576  0.37531445     1.25360
C1130       C  0.62237270  0.42657015  0.38558356     0.87800
C1131       C  0.55004853  0.33628883  0.32506817     0.87740
C1132       C  0.54197755  0.40310616  0.40600338     0.87760
C1133       C  0.63351969  0.37046822  0.31189042     0.87930
C1134       C  0.69820434  0.50577280  0.48034046     0.03180
C1135       C  0.71828991  0.53464724  0.47182011    -0.12970
C1136       C  0.75302682  0.53961394  0.48602547     0.00680
C1137       C  0.76397035  0.52031980  0.51396301    -0.11500
C1138       C  0.74116677  0.49435911  0.52640225     0.03170
C1139       C  0.70919482  0.48616490  0.50859622    -0.10920
H1140       H  0.70948073  0.55088310  0.45105061     0.08770
H1141       H  0.79129287  0.52402842  0.52458718     0.06300
H1142       H  0.69457647  0.46338931  0.51573900     0.06140
C1143       C  0.99508873  0.53097516  0.26684647     0.03180
C1144       C  0.02224194  0.51417157  0.28626799    -0.12970
C1145       C  0.03714523  0.48238788  0.27642341     0.00680
C1146       C  0.02579612  0.46751972  0.24651093    -0.11500
C1147       C  0.99724155  0.48296933  0.22789486     0.03170
C1148       C  0.98262659  0.51530527  0.23742551    -0.10920
H1149       H  0.02898765  0.52414902  0.31091588     0.08770
H1150       H  0.03608541  0.44195597  0.24001223     0.06300
H1151       H  0.95980986  0.52695431  0.22344060     0.06140
C1152       C  0.03906099  0.24889896  0.51824491     0.03180
C1153       C  0.02160011  0.22316596  0.50012005    -0.12970
C1154       C  0.98607957  0.21231568  0.51006188     0.00680
C1155       C  0.96861995  0.22530363  0.53945394    -0.11500
C1156       C  0.98582361  0.25058585  0.55763217     0.03170
C1157       C  0.02251962  0.25975453  0.54918174    -0.10920
H1158       H  0.03280524  0.21441808  0.47578007     0.08770
H1159       H  0.93940017  0.21978412  0.54507093     0.06300
H1160       H  0.03525263  0.27915105  0.56415603     0.06140
O1161       O  0.13820687  0.40907425  0.39113449    -0.74380
O1162       O  0.21122542  0.34928243  0.43247825    -0.74410
O1163       O  0.21102398  0.40479317  0.38162793    -0.74460
O1164       O  0.13857744  0.35887427  0.43790046    -0.74510
O1165       O  0.13325877  0.31926639  0.39776214    -0.74440
O1166       O  0.20384198  0.36611489  0.34135836    -0.74420
O1167       O  0.20644599  0.31171366  0.39088373    -0.74400
O1168       O  0.13075323  0.36927094  0.35147360    -0.74460
Ni1169     Ni  0.17589883  0.38189755  0.41224616     1.25410
Ni1170     Ni  0.16904384  0.34020510  0.36877825     1.25360
C1171       C  0.12268757  0.39854535  0.36443501     0.87800
C1172       C  0.21303062  0.31800249  0.42209379     0.87740
C1173       C  0.21199879  0.39665355  0.34996072     0.87760
C1174       C  0.12522597  0.33100376  0.42739680     0.87930
O1175       O  0.89903809  0.37486257  0.62559628    -0.74380
O1176       O  0.85848451  0.43330384  0.69564899    -0.74410
O1177       O  0.91376855  0.37876899  0.69010781    -0.74460
O1178       O  0.84704076  0.42600489  0.63086452    -0.74510
O1179       O  0.80257389  0.38834077  0.64263898    -0.74440
O1180       O  0.87071639  0.34003788  0.70121470    -0.74420
O1181       O  0.81559570  0.39501425  0.70837385    -0.74400
O1182       O  0.85465169  0.33702512  0.63722029    -0.74460
Ni1183     Ni  0.88125055  0.40464838  0.66066005     1.25410
Ni1184     Ni  0.83421864  0.36387291  0.67339067     1.25360
C1185       C  0.88460686  0.34576734  0.62135753     0.87800
C1186       C  0.82605165  0.42605601  0.70820172     0.87740
C1187       C  0.90531901  0.34859772  0.69998009     0.87760
C1188       C  0.81399914  0.41500579  0.62716323     0.87930
O1189       O  0.83710968  0.35374492  0.11949994    -0.74380
O1190       O  0.89396158  0.42402323  0.07459163    -0.74410
O1191       O  0.84227148  0.37309785  0.05579365    -0.74460
O1192       O  0.88532537  0.40265033  0.13742128    -0.74510
O1193       O  0.93574066  0.36862316  0.12694865    -0.74440
O1194       O  0.88541838  0.33100887  0.05095484    -0.74420
O1195       O  0.93790977  0.38422168  0.06233126    -0.74400
O1196       O  0.88720639  0.31800157  0.11579037    -0.74460
Ni1197     Ni  0.86286414  0.38984365  0.09674694     1.25410
Ni1198     Ni  0.91346126  0.34924114  0.08818742     1.25360
C1199       C  0.85291106  0.32431769  0.12428700     0.87800
C1200       C  0.92796343  0.41590429  0.06528693     0.87740
C1201       C  0.85223838  0.34312331  0.04510702     0.87760
C1202       C  0.91875442  0.39258471  0.14399907     0.87930
O1203       O  0.87902277  0.63837381  0.42387532    -0.74380
O1204       O  0.93031820  0.71064109  0.37896174    -0.74410
O1205       O  0.87121820  0.70407265  0.43202354    -0.74460
O1206       O  0.93144513  0.64317425  0.37369539    -0.74510
O1207       O  0.88475308  0.64439439  0.33701551    -0.74440
O1208       O  0.82997979  0.71042341  0.39135639    -0.74420
O1209       O  0.88852526  0.71095561  0.33831188    -0.74400
O1210       O  0.83267164  0.64316006  0.38688440    -0.74460
Ni1211     Ni  0.90478094  0.67479417  0.40360274     1.25410
Ni1212     Ni  0.85730757  0.67815989  0.36204081     1.25360
C1213       C  0.84735341  0.62954188  0.41314211     0.87800
C1214       C  0.92250609  0.71516805  0.34761400     0.87740
C1215       C  0.83709923  0.71061435  0.42306904     0.87760
C1216       C  0.91674342  0.63296605  0.34626266     0.87930
O1217       O  0.86177718  0.13960257  0.33986412    -0.74380
O1218       O  0.92117705  0.06881601  0.38031104    -0.74410
O1219       O  0.86587847  0.07335218  0.32790251    -0.74460
O1220       O  0.91300673  0.13526191  0.38801716    -0.74510
O1221       O  0.86610190  0.12945370  0.42634179    -0.74440
O1222       O  0.82292007  0.06408070  0.36853859    -0.74420
O1223       O  0.87799304  0.06381499  0.42170777    -0.74400
O1224       O  0.81482721  0.13097351  0.37728699    -0.74460
Ni1225     Ni  0.89213976  0.10392217  0.35751736     1.25410
Ni1226     Ni  0.84372666  0.09610928  0.39971446     1.25360
C1227       C  0.82869758  0.14686402  0.35167742     0.87800
C1228       C  0.91244196  0.06045786  0.41108176     0.87740
C1229       C  0.83314616  0.06305611  0.33694937     0.87760
C1230       C  0.89746127  0.14185571  0.41701917     0.87930
O1231       O  0.02202840  0.34211027  0.78958438    -0.80840
O1232       O  0.96363121  0.22683739  0.68952472    -0.65530
O1233       O  0.98072178  0.28978851  0.76350853    -1.12130
C1234       C  0.05393722  0.19574628  0.79568139     1.06050
O1235       O  0.95396286  0.18348798  0.72440807    -0.78740
O1236       O  0.94670646  0.20998896  0.79036884    -0.66320
Ni1237     Ni  0.99745315  0.33362278  0.74849006     1.34870
C1238       C  0.95250991  0.22859463  0.81628481     0.84780
O1239       O  0.93152717  0.29114741  0.70970550    -0.79280
O1240       O  0.96992079  0.33310601  0.70779377    -0.89550
C1241       C  0.95840686  0.19497752  0.69439258     0.84360
O1242       O  0.04207620  0.31252027  0.72653971    -0.67750
O1243       O  0.02033050  0.18596610  0.79845731    -0.87040
C1244       C  0.04100077  0.29276234  0.70075199     0.85190
C1245       C  0.93656426  0.32314025  0.70727817     1.06750
H1246       H  0.02794787  0.22548592  0.73163639     0.38560
O1247       O  0.00641050  0.23002855  0.74661104    -1.09700
O1248       O  0.98329876  0.24447874  0.81808511    -0.66350
Ni1249     Ni  0.01935848  0.26047278  0.78259450     1.26350
O1250       O  0.01118560  0.27633196  0.69496299    -0.66580
O1251       O  0.05966667  0.22795168  0.79511951    -0.78870
C1252       C  0.02999388  0.32611562  0.81647965     0.84570
O1253       O  0.03143051  0.29331364  0.81796903    -0.66050
Ni1254     Ni  0.98638810  0.18777489  0.76208316     1.27450
Ni1255     Ni  0.97073849  0.25965557  0.72589402     1.26060
H1256       H  0.95889090  0.29234733  0.77855062     0.39110
C1257       C  0.97612503  0.26447958  0.02306420     0.03180
C1258       C  0.98366764  0.24797595  0.99221393    -0.12970
C1259       C  0.01536962  0.25593187  0.97259808     0.00680
C1260       C  0.03734275  0.28329021  0.98174535    -0.11500
C1261       C  0.02818329  0.30138600  0.01134957     0.03170
C1262       C  0.99790580  0.29152654  0.03224130    -0.10920
H1263       H  0.96732287  0.22635544  0.98515493     0.08770
H1264       H  0.06247341  0.28932488  0.96705161     0.06300
H1265       H  0.99251492  0.30370652  0.05666149     0.06140
O1266       O  0.08985668  0.39958598  0.11893868    -0.74380
O1267       O  0.13942542  0.45712943  0.18215999    -0.74410
O1268       O  0.08373120  0.46641324  0.12702079    -0.74460
O1269       O  0.13712086  0.39218798  0.16945566    -0.74510
O1270       O  0.18740059  0.39952159  0.13536120    -0.74440
O1271       O  0.12805483  0.46774455  0.08673649    -0.74420
O1272       O  0.18345966  0.46652299  0.14294866    -0.74400
O1273       O  0.14031222  0.40149955  0.08396445    -0.74460
Ni1274     Ni  0.11065112  0.42963121  0.15086095     1.25410
Ni1275     Ni  0.16162737  0.43511964  0.11095614     1.25360
C1276       C  0.10809695  0.39019863  0.09181798     0.87800
C1277       C  0.17408958  0.46369487  0.17463949     0.87740
C1278       C  0.09277330  0.47162492  0.09559140     0.87760
C1279       C  0.17049320  0.38370586  0.15959445     0.87930
C1280       C  0.00408204  0.95858266  0.24975545     0.03180
C1281       C  0.97395803  0.97599800  0.23462904    -0.12970
C1282       C  0.95525232  0.00311060  0.25128464     0.00680
C1283       C  0.96436078  0.01127222  0.28423624    -0.11500
C1284       C  0.99758703  0.99779948  0.29751186     0.03170
C1285       C  0.01582170  0.96960877  0.28156206    -0.10920
H1286       H  0.96748080  0.97106004  0.20842075     0.08770
H1287       H  0.95043284  0.03324543  0.29638078     0.06300
H1288       H  0.04085407  0.95836401  0.29235404     0.06140
C1289       C  0.28240388  0.22765016  0.23169439     0.03180
C1290       C  0.26995545  0.25915141  0.21941736    -0.12970
C1291       C  0.24020253  0.27688637  0.23587462     0.00680
C1292       C  0.22442238  0.26388804  0.26593550    -0.11500
C1293       C  0.23664016  0.23196212  0.27800934     0.03170
C1294       C  0.26607602  0.21412617  0.26104418    -0.10920
H1295       H  0.28171311  0.26857049  0.19563963     0.08770
H1296       H  0.20109849  0.27748289  0.27866461     0.06300
H1297       H  0.27423923  0.18849802  0.26894789     0.06140
O1298       O  0.11446578  0.07632387  0.39002301    -0.74380
O1299       O  0.16584278  0.13425350  0.45059271    -0.74410
O1300       O  0.10985058  0.08135748  0.45605036    -0.74460
O1301       O  0.16534266  0.12616705  0.38481105    -0.74510
O1302       O  0.11812042  0.16475664  0.38104654    -0.74440
O1303       O  0.06450071  0.12141844  0.45377489    -0.74420
O1304       O  0.11972955  0.17342555  0.44683634    -0.74400
O1305       O  0.06762314  0.11541274  0.38707954    -0.74460
Ni1306     Ni  0.14057770  0.10311998  0.42120337     1.25410
Ni1307     Ni  0.09080441  0.14521835  0.41768442     1.25360
C1308       C  0.08260387  0.08632432  0.37897597     0.87800
C1309       C  0.15431713  0.16562448  0.45271369     0.87740
C1310       C  0.07495757  0.09054151  0.46040452     0.87760
C1311       C  0.15066710  0.15315364  0.37168825     0.87930
C1312       C  0.21046881  0.01870263  0.98947059     0.03180
C1313       C  0.19136931  0.99196839  0.00489817    -0.12970
C1314       C  0.20247901  0.98011366  0.03645991     0.00680
C1315       C  0.23279926  0.99404092  0.05213245    -0.11500
C1316       C  0.25173832  0.02033605  0.03655411     0.03170
C1317       C  0.24089658  0.03274921  0.00518949    -0.10920
H1318       H  0.16758533  0.98096788  0.99280019     0.08770
H1319       H  0.24186558  0.98426521  0.07643118     0.06300
H1320       H  0.25531311  0.05403150  0.99368604     0.06140
O1321       O  0.39803133  0.11669987  0.16610319    -0.74380
O1322       O  0.46529584  0.06045405  0.11037095    -0.74410
O1323       O  0.47101607  0.11602510  0.16001253    -0.74460
O1324       O  0.39213238  0.06584965  0.12183143    -0.74510
O1325       O  0.38668411  0.10527218  0.08091952    -0.74440
O1326       O  0.46889994  0.15147758  0.11616292    -0.74420
O1327       O  0.45849778  0.09688643  0.06775768    -0.74400
O1328       O  0.39550183  0.15526216  0.12419453    -0.74460
Ni1329     Ni  0.43280395  0.08813078  0.14101755     1.25410
Ni1330     Ni  0.42829098  0.12859320  0.09559184     1.25360
C1331       C  0.38553906  0.14489095  0.15371536     0.87800
C1332       C  0.46439409  0.06612424  0.07816969     0.87740
C1333       C  0.47466546  0.14624241  0.14788587     0.87760
C1334       C  0.37551055  0.07865194  0.09630841     0.87930
O1335       O  0.11847418  0.17344504  0.86887995    -0.74380
O1336       O  0.17215695  0.11995635  0.80248731    -0.74410
O1337       O  0.11873667  0.17650719  0.80329958    -0.74460
O1338       O  0.16825935  0.12065672  0.86915868    -0.74510
O1339       O  0.11957763  0.08576349  0.87007191    -0.74440
O1340       O  0.07502729  0.13745867  0.79998875    -0.74420
O1341       O  0.12820725  0.08075295  0.80423510    -0.74400
O1342       O  0.07036872  0.13806728  0.86643254    -0.74460
Ni1343     Ni  0.14636656  0.14887034  0.83528644     1.25410
Ni1344     Ni  0.09655362  0.10910653  0.83440631     1.25360
C1345       C  0.08523346  0.16503953  0.87752792     0.87800
C1346       C  0.16252382  0.08884511  0.79869553     0.87740
C1347       C  0.08462699  0.16880245  0.79802168     0.87760
C1348       C  0.15098951  0.09493246  0.88110994     0.87930
O1349       O  0.07146187  0.84714868  0.14042495    -0.74380
O1350       O  0.13213398  0.78387150  0.08479715    -0.74410
O1351       O  0.07349635  0.78004595  0.14101793    -0.74460
O1352       O  0.12258127  0.84972459  0.08997740    -0.74510
O1353       O  0.16888375  0.84987988  0.12727570    -0.74440
O1354       O  0.11739255  0.78203515  0.17928989    -0.74420
O1355       O  0.17556220  0.78247163  0.12383078    -0.74400
O1356       O  0.11785570  0.84862382  0.17727471    -0.74460
Ni1357     Ni  0.09826322  0.81406212  0.11258477     1.25410
Ni1358     Ni  0.14675080  0.81469665  0.15322789     1.25360
C1359       C  0.08570901  0.85912458  0.16727867     0.87800
C1360       C  0.16716564  0.77983917  0.09235316     0.87740
C1361       C  0.08250589  0.77853472  0.17246603     0.87760
C1362       C  0.15246141  0.86198176  0.10131985     0.87930
O1363       O  0.87016490  0.13478849  0.18276687    -0.74380
O1364       O  0.80683258  0.18088786  0.11771492    -0.74410
O1365       O  0.79951380  0.12702538  0.16999202    -0.74460
O1366       O  0.87689170  0.18514150  0.13548864    -0.74510
O1367       O  0.89154235  0.14679923  0.09482006    -0.74440
O1368       O  0.81667115  0.08827298  0.13093280    -0.74420
O1369       O  0.82114447  0.13987762  0.08020726    -0.74400
O1370       O  0.88789051  0.09743591  0.14209491    -0.74460
Ni1371     Ni  0.83700611  0.15844416  0.15285602     1.25410
Ni1372     Ni  0.85439263  0.11666073  0.11064322     1.25360
C1373       C  0.88873025  0.10804300  0.17262767     0.87800
C1374       C  0.80956019  0.17058661  0.08655986     0.87740
C1375       C  0.80124214  0.09571531  0.15998836     0.87760
C1376       C  0.89504798  0.17605366  0.10843961     0.87930
C1377       C  0.31322491  0.08449921  0.07339422    -0.21260
C1378       C  0.34268657  0.06314954  0.08423400    -0.09300
C1379       C  0.34135035  0.02768892  0.08135271     0.29560
C1380       C  0.31130101  0.01366489  0.06563425    -0.21260
C1381       C  0.28244382  0.03513382  0.05362931    -0.09310
C1382       C  0.28282267  0.07050546  0.05836690     0.29570
F1383       F  0.25388219  0.09130158  0.04858612    -0.19830
H1384       H  0.31399201  0.11198137  0.07635841     0.17930
H1385       H  0.31085712  0.98623733  0.06215838     0.17940
F1386       F  0.36978430  0.00698554  0.09210548    -0.19820
C1387       C  0.18426628  0.92086244  0.03387810    -0.21260
C1388       C  0.18509331  0.95121976  0.05227741    -0.09300
C1389       C  0.17513703  0.95213081  0.08700357     0.29560
C1390       C  0.16618527  0.92215870  0.10349624    -0.21260
C1391       C  0.16639928  0.89177152  0.08510708    -0.09310
C1392       C  0.17466571  0.89118754  0.05034947     0.29570
F1393       F  0.17427485  0.86176054  0.03271909    -0.19830
H1394       H  0.19255711  0.91990358  0.00721527     0.17930
H1395       H  0.15828146  0.92269662  0.13025849     0.17940
F1396       F  0.17479781  0.98179282  0.10482692    -0.19820
C1397       C  0.20479423  0.06548691  0.90698110    -0.21260
C1398       C  0.16674411  0.07538728  0.90828671    -0.09300
C1399       C  0.14295254  0.06515784  0.93503579     0.29560
C1400       C  0.15735351  0.04534236  0.96076965    -0.21260
C1401       C  0.19544170  0.03545229  0.95983026    -0.09310
C1402       C  0.21920846  0.04521669  0.93268760     0.29570
F1403       F  0.25609732  0.03528767  0.93122569    -0.19830
H1404       H  0.22298564  0.07299422  0.88592397     0.17930
H1405       H  0.13904997  0.03877145  0.98207485     0.17940
F1406       F  0.10612993  0.07536228  0.93681510    -0.19820
C1407       C  0.17541851  0.21297268  0.30088423    -0.21260
C1408       C  0.21451060  0.21420342  0.30399822    -0.09300
C1409       C  0.23236533  0.19504960  0.32931228     0.29560
C1410       C  0.21141666  0.17421792  0.35063715    -0.21260
C1411       C  0.17244321  0.17271079  0.34720525    -0.09310
C1412       C  0.15438794  0.19251946  0.32249127     0.29570
F1413       F  0.11664752  0.19144967  0.31869051    -0.19830
H1414       H  0.16129634  0.22695253  0.28097166     0.17930
H1415       H  0.22552503  0.15984523  0.37031006     0.17940
F1416       F  0.27000309  0.19647673  0.33326945    -0.19820
C1417       C  0.34132771  0.19331678  0.22653672    -0.21260
C1418       C  0.30904621  0.20685533  0.21150062    -0.09300
C1419       C  0.30185660  0.19978142  0.17739728     0.29560
C1420       C  0.32722700  0.17954468  0.15847018    -0.21260
C1421       C  0.35936350  0.16594566  0.17362965    -0.09310
C1422       C  0.36653672  0.17297367  0.20753483     0.29570
F1423       F  0.39864451  0.16131884  0.22161015    -0.19830
H1424       H  0.34711385  0.19887809  0.25276177     0.17930
H1425       H  0.32154458  0.17397513  0.13221883     0.17940
F1426       F  0.26992516  0.21162485  0.16277590    -0.19820
C1427       C  0.01875920  0.05521611  0.31306429    -0.21260
C1428       C  0.01856881  0.01990020  0.32000006    -0.09300
C1429       C  0.04109734  0.00653092  0.34570895     0.29560
C1430       C  0.06314600  0.02820153  0.36419211    -0.21260
C1431       C  0.06204231  0.06347667  0.35776789    -0.09310
C1432       C  0.03971689  0.07688191  0.33211301     0.29570
F1433       F  0.03904518  0.11077899  0.32475777    -0.19830
H1434       H  0.00325579  0.06621255  0.29226932     0.17930
H1435       H  0.08034978  0.01756604  0.38406058     0.17940
F1436       F  0.04147942  0.97278205  0.35310583    -0.19820
C1437       C  0.88773119  0.07248184  0.22382968    -0.21260
C1438       C  0.90827851  0.08631649  0.19647772    -0.09300
C1439       C  0.94383497  0.07260613  0.18724638     0.29560
C1440       C  0.95837156  0.04473839  0.20473466    -0.21260
C1441       C  0.93730110  0.02995262  0.23121932    -0.09310
C1442       C  0.90220826  0.04416289  0.24108945     0.29570
F1443       F  0.88198406  0.02990689  0.26676012    -0.19830
H1444       H  0.85970649  0.08231047  0.23040362     0.17930
H1445       H  0.98624267  0.03476098  0.19774019     0.17940
F1446       F  0.96386623  0.08559360  0.16065388    -0.19820
C1447       C  0.08454043  0.90622222  0.20908508    -0.21260
C1448       C  0.06492925  0.88491031  0.18765329    -0.09300
C1449       C  0.02571157  0.88805063  0.18666337     0.29560
C1450       C  0.00645531  0.91117483  0.20797774    -0.21260
C1451       C  0.02574174  0.93248530  0.22967090    -0.09310
C1452       C  0.06530303  0.93032328  0.22945723     0.29570
F1453       F  0.08565079  0.95248232  0.24727849    -0.19830
H1454       H  0.11496583  0.90480224  0.20947199     0.17930
H1455       H  0.97625220  0.91290441  0.20718255     0.17940
F1456       F  0.00586996  0.86838085  0.16569640    -0.19820
C1457       C  0.24438590  0.32991305  0.20197081    -0.21260
C1458       C  0.22214262  0.30554230  0.21825192    -0.09300
C1459       C  0.18314971  0.30612508  0.21365768     0.29560
C1460       C  0.16677575  0.33139077  0.19384515    -0.21260
C1461       C  0.18903591  0.35579574  0.17763859    -0.09310
C1462       C  0.22799887  0.35452918  0.18128458     0.29570
F1463       F  0.25008813  0.37735138  0.16543923    -0.19830
H1464       H  0.27455586  0.32945317  0.20483212     0.17930
H1465       H  0.13660996  0.33161046  0.19082380     0.17940
F1466       F  0.16108194  0.28145065  0.22687123    -0.19820
C1467       C  0.05253431  0.37520675  0.06220400    -0.21260
C1468       C  0.09028506  0.36841892  0.06793899    -0.09300
C1469       C  0.11012267  0.34258126  0.04966026     0.29560
C1470       C  0.09056568  0.32153078  0.02821778    -0.21260
C1471       C  0.05202943  0.32798566  0.02367791    -0.09310
C1472       C  0.03425095  0.35676615  0.03830966     0.29570
F1473       F  0.99813797  0.36489790  0.03127096    -0.19830
H1474       H  0.03754615  0.39468509  0.07678749     0.17930
H1475       H  0.10475439  0.29927340  0.01698422     0.17940
F1476       F  0.14723542  0.33611998  0.05459473    -0.19820
C1477       C  0.04668404  0.17453827  0.92895945    -0.21260
C1478       C  0.06364252  0.18764548  0.89970683    -0.09300
C1479       C  0.06223556  0.22279744  0.89290338     0.29560
C1480       C  0.04427938  0.24493468  0.91587779    -0.21260
C1481       C  0.02896101  0.23218330  0.94623439    -0.09310
C1482       C  0.03015836  0.19670560  0.95267533     0.29570
F1483       F  0.01809655  0.18359760  0.98283570    -0.19830
H1484       H  0.04842606  0.14741051  0.93440577     0.17930
H1485       H  0.04353621  0.27209082  0.91059787     0.17940
F1486       F  0.07897351  0.23569446  0.86450429    -0.19820
C1487       C  0.96463241  0.24085918  0.08071998    -0.21260
C1488       C  0.95130644  0.24841226  0.04812992    -0.09300
C1489       C  0.91792505  0.23440139  0.03757489     0.29560
C1490       C  0.90066386  0.21019053  0.05754666    -0.21260
C1491       C  0.91485404  0.20144330  0.08918283    -0.09310
C1492       C  0.94594963  0.21773312  0.10155577     0.29570
F1493       F  0.95958629  0.20949050  0.13240436    -0.19830
H1494       H  0.99070260  0.25107400  0.08914866     0.17930
H1495       H  0.87653661  0.19773249  0.04795539     0.17940
F1496       F  0.90347426  0.24251621  0.00701170    -0.19820
C1497       C  0.93883599  0.26536859  0.60269038    -0.21260
C1498       C  0.96087988  0.27539237  0.57487696    -0.09300
C1499       C  0.95429508  0.30747744  0.55966629     0.29560
C1500       C  0.92761012  0.33012517  0.57378259    -0.21260
C1501       C  0.90617621  0.32030079  0.60210407    -0.09310
C1502       C  0.91132735  0.28760172  0.61616907     0.29570
F1503       F  0.89131630  0.27800126  0.64414073    -0.19830
H1504       H  0.94288313  0.24039124  0.61373790     0.17930
H1505       H  0.92382698  0.35535041  0.56284432     0.17940
F1506       F  0.97250127  0.31632004  0.53041538    -0.19820
C1507       C  0.94266597  0.16654639  0.49699866    -0.21260
C1508       C  0.96351713  0.19426639  0.48589145    -0.09300
C1509       C  0.96040465  0.20626806  0.45235783     0.29560
C1510       C  0.93802454  0.18945880  0.42994350    -0.21260
C1511       C  0.91759445  0.16153438  0.44112616    -0.09310
C1512       C  0.91954411  0.15028791  0.47486794     0.29570
F1513       F  0.90053512  0.12267899  0.48597527    -0.19830
H1514       H  0.94453577  0.15747237  0.52274417     0.17930
H1515       H  0.93643207  0.19829849  0.40394934     0.17940
F1516       F  0.97807480  0.23470004  0.44153156    -0.19820
C1517       C  0.08858948  0.25503063  0.47325269    -0.21260
C1518       C  0.06690813  0.27008869  0.49983500    -0.09300
C1519       C  0.06625167  0.30616134  0.50293848     0.29560
C1520       C  0.08514949  0.32588097  0.47907647    -0.21260
C1521       C  0.10345815  0.31048165  0.45103368    -0.09310
C1522       C  0.10480978  0.27486994  0.44804297     0.29570
F1523       F  0.12215350  0.25909349  0.42094555    -0.19830
H1524       H  0.09125734  0.22765528  0.47081738     0.17930
H1525       H  0.08441848  0.35340401  0.48196970     0.17940
F1526       F  0.04597182  0.32312718  0.52749177    -0.19820
C1527       C  0.93558964  0.56150266  0.28413069    -0.21260
C1528       C  0.97495773  0.56084263  0.28182346    -0.09300
C1529       C  0.99486432  0.58535714  0.29933589     0.29560
C1530       C  0.97587751  0.60827159  0.32116538    -0.21260
C1531       C  0.93668567  0.60820894  0.32421929    -0.09310
C1532       C  0.91647646  0.58526704  0.30489110     0.29570
F1533       F  0.87839134  0.58449022  0.30753985    -0.19830
H1534       H  0.91965588  0.54243310  0.27144626     0.17930
H1535       H  0.99166462  0.62612619  0.33559974     0.17940
F1536       F  0.03282632  0.58607772  0.29609620    -0.19820
C1537       C  0.97802185  0.41610855  0.16291122    -0.21260
C1538       C  0.93925537  0.41233796  0.16834223    -0.09300
C1539       C  0.91962015  0.43285432  0.19254843     0.29560
C1540       C  0.93848568  0.45718327  0.21051332    -0.21260
C1541       C  0.97710274  0.46134427  0.20469562    -0.09310
C1542       C  0.99685442  0.44045413  0.18094827     0.29570
F1543       F  0.03433765  0.44358804  0.17535595    -0.19830
H1544       H  0.99349516  0.40121547  0.14371186     0.17930
H1545       H  0.92310067  0.47212664  0.22972350     0.17940
F1546       F  0.88216682  0.42959120  0.19864994    -0.19820
C1547       C  0.04709687  0.42834309  0.30747312    -0.21260
C1548       C  0.05826738  0.46177707  0.30065221    -0.09300
C1549       C  0.08822096  0.47538718  0.31801395     0.29560
C1550       C  0.10759164  0.45517265  0.34107611    -0.21260
C1551       C  0.09751127  0.42124371  0.34638961    -0.09310
C1552       C  0.06690255  0.40798161  0.32989205     0.29570
F1553       F  0.05672542  0.37518613  0.33496153    -0.19830
H1554       H  0.02318872  0.41785749  0.29517363     0.17930
H1555       H  0.13180450  0.46531426  0.35321073     0.17940
F1556       F  0.09968680  0.50752685  0.31154328    -0.19820
C1557       C  0.75302007  0.43762525  0.55411591    -0.21260
C1558       C  0.75369393  0.47352707  0.55535482    -0.09300
C1559       C  0.76974464  0.48943027  0.58313693     0.29560
C1560       C  0.78803657  0.46985344  0.60727387    -0.21260
C1561       C  0.78918599  0.43420368  0.60497208    -0.09310
C1562       C  0.77033038  0.41797793  0.57912173     0.29570
F1563       F  0.77157193  0.38341201  0.57638896    -0.19830
H1564       H  0.74112639  0.42472481  0.53285774     0.17930
H1565       H  0.80249741  0.48265149  0.62715609     0.17940
F1566       F  0.76908527  0.52397111  0.58622096    -0.19820
C1567       C  0.80048514  0.58461090  0.48561313    -0.21260
C1568       C  0.77991693  0.56090852  0.46795473    -0.09300
C1569       C  0.78517020  0.55736951  0.43256689     0.29560
C1570       C  0.80771500  0.57970517  0.41476327    -0.21260
C1571       C  0.82676295  0.60441639  0.43222446    -0.09310
C1572       C  0.82441663  0.60603178  0.46783404     0.29570
F1573       F  0.84380382  0.62928671  0.48520880    -0.19830
H1574       H  0.79730692  0.58705188  0.51292302     0.17930
H1575       H  0.81042922  0.57768579  0.38737813     0.17940
F1576       F  0.76873153  0.53220012  0.41523616    -0.19820
C1577       C  0.62851660  0.44862408  0.44283277    -0.21260
C1578       C  0.63763620  0.45139013  0.40815925    -0.09300
C1579       C  0.66211713  0.47615796  0.39660719     0.29560
C1580       C  0.68008611  0.49587113  0.42021958    -0.21260
C1581       C  0.67230096  0.49203480  0.45545857    -0.09310
C1582       C  0.64401423  0.47006347  0.46611027     0.29570
F1583       F  0.63262899  0.46806847  0.49914487    -0.19830
H1584       H  0.60994564  0.42918174  0.45212216     0.17930
H1585       H  0.70177774  0.51230536  0.41069794     0.17940
F1586       F  0.67132623  0.47892016  0.36308324    -0.19820
C1587       C  0.82526846  0.19344921  0.31019994    -0.21260
C1588       C  0.80635585  0.17241205  0.33332848    -0.09300
C1589       C  0.76684150  0.17257852  0.33411590     0.29560
C1590       C  0.74715178  0.18912426  0.30839907    -0.21260
C1591       C  0.76688343  0.20658640  0.28282876    -0.09310
C1592       C  0.80569917  0.21077738  0.28543871     0.29570
F1593       F  0.82481412  0.23145256  0.26388511    -0.19830
H1594       H  0.85557259  0.19533183  0.31028387     0.17930
H1595       H  0.71682306  0.18772164  0.30797137     0.17940
F1596       F  0.74746944  0.15608998  0.35885739    -0.19820
C1597       C  0.66303969  0.31904817  0.23801819    -0.21260
C1598       C  0.69800664  0.30750033  0.24940826    -0.09300
C1599       C  0.71582840  0.32528873  0.27503269     0.29560
C1600       C  0.69606419  0.35077140  0.29290144    -0.21260
C1601       C  0.65891557  0.35881057  0.28480747    -0.09310
C1602       C  0.64342998  0.34506550  0.25562233     0.29570
F1603       F  0.60734403  0.35279769  0.24752399    -0.19830
H1604       H  0.64953623  0.30578385  0.21784949     0.17930
H1605       H  0.70815212  0.36146124  0.31531200     0.17940
F1606       F  0.75073177  0.31552518  0.28504544    -0.19820
C1607       C  0.79523271  0.29118956  0.12493504    -0.21260
C1608       C  0.83078577  0.29665962  0.13786037    -0.09300
C1609       C  0.84485729  0.27532285  0.16329588     0.29560
C1610       C  0.82109774  0.25249488  0.17939925    -0.21260
C1611       C  0.78325165  0.25107635  0.17021415    -0.09310
C1612       C  0.77189193  0.26761068  0.14046802     0.29570
F1613       F  0.73646208  0.26437672  0.12948650    -0.19830
H1614       H  0.78499544  0.30620577  0.10382350     0.17930
H1615       H  0.83115496  0.23931636  0.20159464     0.17940
F1616       F  0.87998148  0.27917702  0.17500859    -0.19820
C1617       C  0.90290986  0.55733166  0.74955233    -0.21260
C1618       C  0.93319519  0.53643456  0.73778549    -0.09300
C1619       C  0.95400791  0.54626507  0.70857085     0.29560
C1620       C  0.94375091  0.57578063  0.69116913    -0.21260
C1621       C  0.91345829  0.59645528  0.70300660    -0.09310
C1622       C  0.89361238  0.58753110  0.73284353     0.29570
F1623       F  0.86365956  0.60675918  0.74460712    -0.19830
H1624       H  0.88710462  0.55061083  0.77230827     0.17930
H1625       H  0.95877768  0.58203471  0.66778877     0.17940
F1626       F  0.98506860  0.52820099  0.69738237    -0.19820
C1627       C  0.06053131  0.44192106  0.74377198    -0.21260
C1628       C  0.02109505  0.43927039  0.74505401    -0.09300
C1629       C  0.00449437  0.41454337  0.72517246     0.29560
C1630       C  0.02644640  0.39478472  0.70265610    -0.21260
C1631       C  0.06552599  0.39757906  0.70117168    -0.09310
C1632       C  0.08274661  0.42067626  0.72240929     0.29570
F1633       F  0.12060338  0.42400080  0.72109012    -0.19830
H1634       H  0.07413505  0.46126931  0.75818502     0.17930
H1635       H  0.01296460  0.37699719  0.68634664     0.17940
F1636       F  0.96690601  0.40994301  0.72717016    -0.19820
C1637       C  0.05586258  0.54877037  0.86640013    -0.21260
C1638       C  0.06025973  0.58061265  0.85063375    -0.09300
C1639       C  0.04001291  0.58955466  0.82215317     0.29560
C1640       C  0.01632517  0.56597899  0.80867706    -0.21260
C1641       C  0.01190993  0.53377777  0.82424452    -0.09310
C1642       C  0.03146668  0.52545990  0.85342150     0.29570
F1643       F  0.02716694  0.49488302  0.86895796    -0.19830
H1644       H  0.07141258  0.54203404  0.88877815     0.17930
H1645       H  0.00226747  0.57249369  0.78541886     0.17940
F1646       F  0.04455363  0.62017648  0.80662107    -0.19820
C1647       C  0.31295667  0.51984073  0.58405305    -0.21260
C1648       C  0.32312735  0.51575043  0.54950043    -0.09300
C1649       C  0.35076005  0.53628488  0.53470917     0.29560
C1650       C  0.36584987  0.56210026  0.55351033    -0.21260
C1651       C  0.35475693  0.56683305  0.58758230    -0.09310
C1652       C  0.32926003  0.54491741  0.60322371     0.29570
F1653       F  0.31933687  0.54852744  0.63656048    -0.19830
H1654       H  0.29120856  0.50474150  0.59586175     0.17930
H1655       H  0.38699628  0.57790705  0.54167704     0.17940
F1656       F  0.36224649  0.53198659  0.50180843    -0.19820
C1657       C  0.16971787  0.42094155  0.57256077    -0.21260
C1658       C  0.18468209  0.39286596  0.58988339    -0.09300
C1659       C  0.22254674  0.38261076  0.58463242     0.29560
C1660       C  0.24510126  0.40053828  0.56188743    -0.21260
C1661       C  0.23016566  0.42873701  0.54444569    -0.09310
C1662       C  0.19232573  0.43916222  0.55042935     0.29570
F1663       F  0.17755984  0.46800684  0.53644373    -0.19830
H1664       H  0.14055396  0.42906685  0.57657763     0.17930
H1665       H  0.27426082  0.39277766  0.55817847     0.17940
F1666       F  0.23732135  0.35473844  0.60054419    -0.19820
C1667       C  0.36942573  0.74083918  0.72186168    -0.21260
C1668       C  0.34415452  0.73054675  0.74761015    -0.09300
C1669       C  0.33782146  0.69516027  0.75143872     0.29560
C1670       C  0.35093744  0.67224897  0.72666531    -0.21260
C1671       C  0.37014726  0.68404103  0.69786520    -0.09310
C1672       C  0.38098941  0.71820591  0.69632952     0.29570
F1673       F  0.40223275  0.72995455  0.66991925    -0.19830
H1674       H  0.37692438  0.76733675  0.71940893     0.17930
H1675       H  0.34465318  0.64545911  0.72930108     0.17940
F1676       F  0.31693372  0.68238222  0.77742363    -0.19820
C1677       C  0.17646627  0.72976011  0.84686174    -0.21260
C1678       C  0.17865566  0.69484501  0.83850186    -0.09300
C1679       C  0.20562112  0.68276127  0.81466479     0.29560
C1680       C  0.23131390  0.70506966  0.80073863    -0.21260
C1681       C  0.23124322  0.73938956  0.81111803    -0.09310
C1682       C  0.20257293  0.75199022  0.83306137     0.29570
F1683       F  0.20010917  0.78552050  0.84126055    -0.19830
H1684       H  0.15569664  0.73954671  0.86529090     0.17930
H1685       H  0.25101656  0.69558646  0.78141772     0.17940
F1686       F  0.20730972  0.64944469  0.80511565    -0.19820
C1687       C  0.26810335  0.84055246  0.69929458    -0.21260
C1688       C  0.24878519  0.81497276  0.71690793    -0.09300
C1689       C  0.21270214  0.80640037  0.70680302     0.29560
C1690       C  0.19460645  0.82606406  0.68266766    -0.21260
C1691       C  0.21257349  0.85373360  0.66755890    -0.09310
C1692       C  0.25019206  0.85965638  0.67425948     0.29570
F1693       F  0.26838893  0.88540789  0.65852799    -0.19830
H1694       H  0.29645195  0.84639724  0.70584010     0.17930
H1695       H  0.16577873  0.82071894  0.67691368     0.17940
F1696       F  0.19466359  0.77938617  0.72051967    -0.19820
C1697       C  0.22583053  0.56446935  0.42084149    -0.21260
C1698       C  0.18698554  0.56676792  0.42771112    -0.09300
C1699       C  0.17042925  0.54488127  0.45151147     0.29560
C1700       C  0.19256024  0.52084373  0.46809433    -0.21260
C1701       C  0.23146440  0.51819707  0.46123507    -0.09310
C1702       C  0.24798287  0.54030915  0.43749612     0.29570
F1703       F  0.28551524  0.53868163  0.43074865    -0.19830
H1704       H  0.23885881  0.58070577  0.40190603     0.17930
H1705       H  0.17923118  0.50508385  0.48709122     0.17940
F1706       F  0.13295225  0.54696203  0.45901005    -0.19820
C1707       C  0.07064046  0.71693283  0.41327138    -0.21260
C1708       C  0.06879878  0.68274415  0.42332695    -0.09300
C1709       C  0.04344232  0.67325459  0.44921711     0.29560
C1710       C  0.02161952  0.69835946  0.46615805    -0.21260
C1711       C  0.02427984  0.73289481  0.45667190    -0.09310
C1712       C  0.04833172  0.74171899  0.42956144     0.29570
F1713       F  0.05084741  0.77451148  0.41935095    -0.19830
H1714       H  0.08916006  0.72447183  0.39245245     0.17930
H1715       H  0.00387222  0.69090309  0.48749490     0.17940
F1716       F  0.04091668  0.64012395  0.45893954    -0.19820
C1717       C  0.93946465  0.76251093  0.57888343    -0.21260
C1718       C  0.93023384  0.76179052  0.54427405    -0.09300
C1719       C  0.90290770  0.73929178  0.53386847     0.29560
C1720       C  0.89070959  0.71408019  0.55592664    -0.21260
C1721       C  0.90294182  0.71283051  0.58939822    -0.09310
C1722       C  0.92556852  0.73833951  0.60142305     0.29570
F1723       F  0.93628592  0.73842330  0.63419289    -0.19830
H1724       H  0.95974261  0.77983483  0.58825101     0.17930
H1725       H  0.87196606  0.69523324  0.54669370     0.17940
F1726       F  0.89024685  0.74003254  0.50169942    -0.19820
C1727       C  0.06275741  0.85127346  0.51777533    -0.21260
C1728       C  0.04036606  0.82697184  0.53368734    -0.09300
C1729       C  0.04649487  0.81766375  0.56754246     0.29560
C1730       C  0.07280823  0.83444895  0.58592967    -0.21260
C1731       C  0.09389833  0.85999096  0.57051585    -0.09310
C1732       C  0.08955341  0.86787301  0.53605300     0.29570
F1733       F  0.10943209  0.89289708  0.52069698    -0.19830
H1734       H  0.05903496  0.85757962  0.49145792     0.17930
H1735       H  0.07630765  0.82792097  0.61240161     0.17940
F1736       F  0.02767378  0.79186033  0.58259473    -0.19820
C1737       C  0.74390006  0.35869805  0.73240481    -0.21260
C1738       C  0.73231879  0.32775946  0.74591891    -0.09300
C1739       C  0.70254164  0.31056942  0.73154880     0.29560
C1740       C  0.68461991  0.32444308  0.70376573    -0.21260
C1741       C  0.69716495  0.35478383  0.68942536    -0.09310
C1742       C  0.72678445  0.37202105  0.70375991     0.29570
F1743       F  0.73792559  0.40226719  0.69081144    -0.19830
H1744       H  0.76635334  0.37195083  0.74403443     0.17930
H1745       H  0.66107950  0.31152190  0.69331019     0.17940
F1746       F  0.69197048  0.27968037  0.74349792    -0.19820
C1747       C  0.68552530  0.24863149  0.82679752    -0.21260
C1748       C  0.72339374  0.24948731  0.83616662    -0.09300
C1749       C  0.73661615  0.22701041  0.86102671     0.29560
C1750       C  0.71375090  0.20161603  0.87342074    -0.21260
C1751       C  0.67707308  0.19908888  0.86191999    -0.09310
C1752       C  0.66227799  0.22366299  0.83990562     0.29570
F1753       F  0.62637470  0.22213541  0.82943607    -0.19830
H1754       H  0.67458598  0.26555760  0.80749459     0.17930
H1755       H  0.72485025  0.18360964  0.89175287     0.17940
F1756       F  0.77241463  0.22826321  0.87150301    -0.19820
C1757       C  0.79984850  0.20352064  0.73824135    -0.21260
C1758       C  0.81666179  0.23454798  0.74584772    -0.09300
C1759       C  0.84831271  0.24452271  0.72697240     0.29560
C1760       C  0.86182150  0.22477020  0.69977677    -0.21260
C1761       C  0.84426844  0.19454549  0.69134402    -0.09310
C1762       C  0.81392965  0.18332591  0.71138049     0.29570
F1763       F  0.79750892  0.15339083  0.70446155    -0.19830
H1764       H  0.77491001  0.19562212  0.75215186     0.17930
H1765       H  0.88677099  0.23245324  0.68591535     0.17940
F1766       F  0.86544122  0.27380746  0.73466854    -0.19820
C1767       C  0.43692387  0.17419219  0.55381738    -0.21260
C1768       C  0.41047207  0.19119510  0.57506726    -0.09300
C1769       C  0.40665504  0.22687066  0.57427793     0.29560
C1770       C  0.42721593  0.24515667  0.55045021    -0.21260
C1771       C  0.45237857  0.22799958  0.52801788    -0.09310
C1772       C  0.45831346  0.19250982  0.53082103     0.29570
F1773       F  0.48570443  0.17569103  0.51239158    -0.19830
H1774       H  0.44068201  0.14664632  0.55477848     0.17930
H1775       H  0.42379170  0.27265094  0.54955339     0.17940
F1776       F  0.38199476  0.24379426  0.59543903    -0.19820
C1777       C  0.55156740  0.24166723  0.39921181    -0.21260
C1778       C  0.53056426  0.22605209  0.42524228    -0.09300
C1779       C  0.52619395  0.19029801  0.42437097     0.29560
C1780       C  0.54247042  0.17098649  0.39825171    -0.21260
C1781       C  0.56513592  0.18635859  0.37365339    -0.09310
C1782       C  0.56954020  0.22187061  0.37397347     0.29570
F1783       F  0.59202086  0.23724890  0.35054261    -0.19830
H1784       H  0.55522338  0.26900913  0.39906928     0.17930
H1785       H  0.53958446  0.14351548  0.39872572     0.17940
F1786       F  0.50902581  0.17314955  0.44998429    -0.19820
C1787       C  0.53470043  0.33478535  0.53735449    -0.21260
C1788       C  0.55292582  0.30788094  0.51947900    -0.09300
C1789       C  0.59073294  0.29935759  0.52570994     0.29560
C1790       C  0.60939372  0.31694541  0.55062721    -0.21260
C1791       C  0.58993437  0.34193129  0.57025897    -0.09310
C1792       C  0.55254720  0.35098254  0.56321942     0.29570
F1793       F  0.53323912  0.37570843  0.58112270    -0.19830
H1794       H  0.50554400  0.34159183  0.53279912     0.17930
H1795       H  0.63857942  0.31043421  0.55531237     0.17940
F1796       F  0.60871031  0.27275909  0.50948864    -0.19820
C1797       C  0.73516068  0.05569148  0.40573048    -0.21260
C1798       C  0.71617643  0.03917372  0.43225215    -0.09300
C1799       C  0.67667819  0.04209930  0.43509348     0.29560
C1800       C  0.65692276  0.06133781  0.41135213    -0.21260
C1801       C  0.67650259  0.07889121  0.38576486    -0.09310
C1802       C  0.71568279  0.07618748  0.38334167     0.29570
F1803       F  0.73512237  0.09299010  0.35893081    -0.19830
H1804       H  0.76539570  0.05352521  0.40310985     0.17930
H1805       H  0.62652555  0.06331551  0.41346386     0.17940
F1806       F  0.65737293  0.02803833  0.46152660    -0.19820
C1807       C  0.72861076  0.95981474  0.55966385    -0.21260
C1808       C  0.73093350  0.95403569  0.52440280    -0.09300
C1809       C  0.71573521  0.92458522  0.51084567     0.29560
C1810       C  0.69774225  0.90176610  0.53233015    -0.21260
C1811       C  0.69590638  0.90762355  0.56743243    -0.09310
C1812       C  0.71182746  0.93643344  0.58114578     0.29570
F1813       F  0.70939119  0.94282396  0.61500129    -0.19830
H1814       H  0.73892139  0.98294150  0.57063647     0.17930
H1815       H  0.68537454  0.87943291  0.52160404     0.17940
F1816       F  0.71833857  0.91787049  0.47707558    -0.19820
C1817       C  0.85561264  0.05803103  0.56249476    -0.21260
C1818       C  0.84097472  0.09096307  0.56933145    -0.09300
C1819       C  0.81239354  0.10511866  0.54974046     0.29560
C1820       C  0.79661197  0.08524813  0.52505034    -0.21260
C1821       C  0.81043470  0.05167416  0.51886827    -0.09310
C1822       C  0.84129329  0.03882719  0.53672490     0.29570
F1823       F  0.85674127  0.00734501  0.52999345    -0.19830
H1824       H  0.87866931  0.04737443  0.57679451     0.17930
H1825       H  0.77241304  0.09557799  0.51204980     0.17940
F1826       F  0.79878935  0.13740876  0.55550102    -0.19820
C1827       C  0.40437383  0.05445593  0.73242560    -0.21260
C1828       C  0.43224865  0.03250110  0.71794348    -0.09300
C1829       C  0.44123085  0.03496896  0.68299508     0.29560
C1830       C  0.42237283  0.05857159  0.66306987    -0.21260
C1831       C  0.39532800  0.08094705  0.67768924    -0.09310
C1832       C  0.38632831  0.07893491  0.71256102     0.29570
F1833       F  0.35989525  0.10021512  0.72733795    -0.19830
H1834       H  0.39752074  0.05335933  0.75933145     0.17930
H1835       H  0.42965122  0.05997906  0.63622876     0.17940
F1836       F  0.46997266  0.01641458  0.66829073    -0.19820
C1837       C  0.58499427  0.06552760  0.81425651    -0.21260
C1838       C  0.56652864  0.08241235  0.84150439    -0.09300
C1839       C  0.52849177  0.07642786  0.84904939     0.29560
C1840       C  0.50943197  0.05333067  0.82969165    -0.21260
C1841       C  0.52790544  0.03627114  0.80247753    -0.09310
C1842       C  0.56577146  0.04290207  0.79451595     0.29570
F1843       F  0.58385850  0.02848456  0.76707538    -0.19830
H1844       H  0.61437239  0.06985981  0.80830763     0.17930
H1845       H  0.48018746  0.04869823  0.83590941     0.17940
F1846       F  0.51028152  0.09155421  0.87606565    -0.19820
C1847       C  0.52969374  0.94845858  0.68439837    -0.21260
C1848       C  0.52795346  0.94312672  0.71971765    -0.09300
C1849       C  0.55210111  0.91843825  0.73408262     0.29560
C1850       C  0.57812876  0.90032111  0.71354140    -0.21260
C1851       C  0.57988985  0.90626361  0.67845200    -0.09310
C1852       C  0.55516653  0.93001297  0.66386372     0.29570
F1853       F  0.55645379  0.93613638  0.62993870    -0.19830
H1854       H  0.51237503  0.96783648  0.67256652     0.17930
H1855       H  0.59638347  0.88113214  0.72492621     0.17940
F1856       F  0.55063577  0.91196118  0.76784402    -0.19820
C1857       C  0.39847074  0.53193970  0.18865354    -0.21260
C1858       C  0.40616649  0.56671619  0.18613582    -0.09300
C1859       C  0.43438765  0.58067556  0.20519119     0.29560
C1860       C  0.45597317  0.55943123  0.22566172    -0.21260
C1861       C  0.44873675  0.52436687  0.22790400    -0.09310
C1862       C  0.41933869  0.51086556  0.20973439     0.29570
F1863       F  0.41094660  0.47738034  0.21232089    -0.19830
H1864       H  0.37586532  0.52123166  0.17464035     0.17930
H1865       H  0.47907255  0.57020070  0.23889618     0.17940
F1866       F  0.44192732  0.61438862  0.20294673    -0.19820
C1867       C  0.52307744  0.40741436  0.20333818    -0.21260
C1868       C  0.54201494  0.43075929  0.22307557    -0.09300
C1869       C  0.58066441  0.43545752  0.21701742     0.29560
C1870       C  0.59971206  0.41743359  0.19121376    -0.21260
C1871       C  0.58031146  0.39541372  0.17057545    -0.09310
C1872       C  0.54194371  0.39008295  0.17695743     0.29570
F1873       F  0.52289388  0.36771975  0.15816208    -0.19830
H1874       H  0.49329074  0.40365653  0.20759644     0.17930
H1875       H  0.62946464  0.42128738  0.18677759     0.17940
F1876       F  0.59951975  0.45908578  0.23431549    -0.19820
C1877       C  0.42903390  0.66732866  0.05682404    -0.21260
C1878       C  0.39929570  0.67905810  0.07780944    -0.09300
C1879       C  0.38532011  0.71291913  0.07519134     0.29560
C1880       C  0.40075114  0.73463964  0.05101699    -0.21260
C1881       C  0.43057280  0.72288320  0.02992283    -0.09310
C1882       C  0.44537014  0.68937536  0.03365398     0.29570
F1883       F  0.47716070  0.67866033  0.01665555    -0.19830
H1884       H  0.44012076  0.64136450  0.05898373     0.17930
H1885       H  0.39006542  0.76074228  0.04914585     0.17940
F1886       F  0.35615597  0.72464684  0.09531184    -0.19820
C1887       C  0.56252165  0.79927453  0.03316827    -0.21260
C1888       C  0.52463780  0.80836717  0.02863065    -0.09300
C1889       C  0.50816113  0.83625098  0.04627753     0.29560
C1890       C  0.52915423  0.85466638  0.06867390    -0.21260
C1891       C  0.56706009  0.84568555  0.07307767    -0.09310
C1892       C  0.58377356  0.81795370  0.05513428     0.29570
F1893       F  0.62040177  0.80861757  0.05929747    -0.19830
H1894       H  0.57537054  0.77724099  0.02034697     0.17930
H1895       H  0.51618414  0.87653162  0.08171532     0.17940
F1896       F  0.47183818  0.84563975  0.04135087    -0.19820
C1897       C  0.53476004  0.67475513  0.90868220    -0.21260
C1898       C  0.56088705  0.69120540  0.88794326    -0.09300
C1899       C  0.56215794  0.72697920  0.88812238     0.29560
C1900       C  0.53775493  0.74590965  0.90949129    -0.21260
C1901       C  0.51313034  0.72937053  0.93216869    -0.09310
C1902       C  0.51153493  0.69334323  0.93099351     0.29570
F1903       F  0.48973428  0.67528646  0.95272036    -0.19830
H1904       H  0.53346226  0.64714304  0.90880425     0.17930
H1905       H  0.53921521  0.77348185  0.90920647     0.17940
F1906       F  0.58709103  0.74361894  0.86793364    -0.19820
C1907       C  0.70939229  0.42482962  0.00135661    -0.21260
C1908       C  0.73072416  0.44789271  0.01949728    -0.09300
C1909       C  0.73006112  0.44637060  0.05525637     0.29560
C1910       C  0.70944060  0.42208020  0.07216150    -0.21260
C1911       C  0.68788262  0.39971563  0.05413368    -0.09310
C1912       C  0.68742115  0.40123983  0.01862867     0.29570
F1913       F  0.66613014  0.37985634  0.00080148    -0.19830
H1914       H  0.70926117  0.42543858  0.97389179     0.17930
H1915       H  0.70936190  0.42148510  0.09966236     0.17940
F1916       F  0.74748593  0.46926081  0.07445147    -0.19820
C1917       C  0.84533809  0.56166225  0.01444855    -0.21260
C1918       C  0.81703045  0.54060208  0.02692342    -0.09300
C1919       C  0.80483450  0.54345508  0.06112651     0.29560
C1920       C  0.82225643  0.56527191  0.08277099    -0.21260
C1921       C  0.85072412  0.58590855  0.07038597    -0.09310
C1922       C  0.86189595  0.58459773  0.03592041     0.29570
F1923       F  0.88932521  0.60471006  0.02322426    -0.19830
H1924       H  0.85396298  0.56077809  0.98800041     0.17930
H1925       H  0.81300835  0.56652988  0.10919001     0.17940
F1926       F  0.77440627  0.52707257  0.07329030    -0.19820
C1927       C  0.68277830  0.54938176  0.89191291    -0.21260
C1928       C  0.68058614  0.58490752  0.89609191    -0.09300
C1929       C  0.70036812  0.60038606  0.92173735     0.29560
C1930       C  0.72171107  0.58024975  0.94339860    -0.21260
C1931       C  0.72488217  0.54462762  0.93873492    -0.09310
C1932       C  0.70551362  0.52937760  0.91247468     0.29570
F1933       F  0.70909110  0.49533976  0.90622682    -0.19830
H1934       H  0.66778659  0.53717476  0.87195719     0.17930
H1935       H  0.73527729  0.59260343  0.96410263     0.17940
F1936       F  0.69826329  0.63474256  0.92636917    -0.19820
C1937       C  0.51871966  0.53231181  0.34219302    -0.21260
C1938       C  0.53912203  0.51216882  0.31825504    -0.09300
C1939       C  0.57853697  0.51484013  0.31560551     0.29560
C1940       C  0.59655644  0.53773335  0.33603814    -0.21260
C1941       C  0.57555958  0.55939904  0.35803878    -0.09310
C1942       C  0.53660678  0.55666587  0.36080695     0.29570
F1943       F  0.51587470  0.57771618  0.38145052    -0.19830
H1944       H  0.48849506  0.53060571  0.34507794     0.17930
H1945       H  0.62684702  0.53941900  0.33375792     0.17940
F1946       F  0.59955859  0.49741439  0.29180718    -0.19820
C1947       C  0.68575841  0.71286938  0.31330592    -0.21260
C1948       C  0.71901004  0.72574298  0.32589912    -0.09300
C1949       C  0.73384942  0.71218468  0.35566333     0.29560
C1950       C  0.71653513  0.68519159  0.37206689    -0.21260
C1951       C  0.68335190  0.67250667  0.35949047    -0.09310
C1952       C  0.66761391  0.68676392  0.33036070     0.29570
F1953       F  0.63482870  0.67535423  0.31849885    -0.19830
H1954       H  0.67427856  0.72249594  0.28988002     0.17930
H1955       H  0.72796082  0.67532426  0.39543120     0.17940
F1956       F  0.76466321  0.72566893  0.36893318    -0.19820
C1957       C  0.84412460  0.74216993  0.22136291    -0.21260
C1958       C  0.81468043  0.72885837  0.24110418    -0.09300
C1959       C  0.79997641  0.69706048  0.23260997     0.29560
C1960       C  0.81497229  0.67887688  0.20511147    -0.21260
C1961       C  0.84407402  0.69235211  0.18531386    -0.09310
C1962       C  0.85856116  0.72417575  0.19335504     0.29570
F1963       F  0.88780924  0.73703122  0.17517648    -0.19830
H1964       H  0.85492849  0.76702415  0.22703163     0.17930
H1965       H  0.80414327  0.65402408  0.19941699     0.17940
F1966       F  0.76974026  0.68436833  0.24959993    -0.19820
C1967       C  0.71122787  0.79228667  0.20222172    -0.21260
C1968       C  0.71586667  0.80714860  0.23422818    -0.09300
C1969       C  0.69887101  0.83860333  0.24213937     0.29560
C1970       C  0.67789806  0.85571440  0.21832746    -0.21260
C1971       C  0.67353886  0.84129650  0.18637694    -0.09310
C1972       C  0.69028281  0.80958380  0.17803929     0.29570
F1973       F  0.68659874  0.79575644  0.14680317    -0.19830
H1974       H  0.72425987  0.76764686  0.19597254     0.17930
H1975       H  0.66676074  0.88113786  0.22411135     0.17940
F1976       F  0.70441865  0.85352450  0.27212908    -0.19820
C1977       C  0.31983261  0.56653267  0.98281436    -0.21260
C1978       C  0.28047722  0.56887374  0.98580629    -0.09300
C1979       C  0.26061477  0.59266116  0.96592171     0.29560
C1980       C  0.27967991  0.61183547  0.94159895    -0.21260
C1981       C  0.31887626  0.60915035  0.93849747    -0.09310
C1982       C  0.33896773  0.58671625  0.95965139     0.29570
F1983       F  0.37700166  0.58309571  0.95691053    -0.19830
H1984       H  0.33583580  0.54771108  0.99700796     0.17930
H1985       H  0.26396392  0.62897505  0.92537593     0.17940
F1986       F  0.22272963  0.59645113  0.96944486    -0.19820
C1987       C  0.15422974  0.42804487  0.96810546    -0.21260
C1988       C  0.16195036  0.42737682  0.93306329    -0.09300
C1989       C  0.18932282  0.44832546  0.91865752     0.29560
C1990       C  0.20896865  0.46967312  0.93938509    -0.21260
C1991       C  0.20076385  0.47082998  0.97443008    -0.09310
C1992       C  0.17316056  0.44994261  0.98867321     0.29570
F1993       F  0.16412009  0.45114110  0.02233015    -0.19830
H1994       H  0.13243091  0.41260505  0.97941810     0.17930
H1995       H  0.23093328  0.48492214  0.92812058     0.17940
F1996       F  0.19717665  0.44794239  0.88474878    -0.19820
C1997       C  0.32804987  0.47390485  0.06387389    -0.21260
C1998       C  0.28865334  0.47417833  0.06687741    -0.09300
C1999       C  0.27100467  0.45094046  0.08868207     0.29560
C2000       C  0.29227777  0.42670446  0.10577125    -0.21260
C2001       C  0.33146508  0.42577110  0.10231828    -0.09310
C2002       C  0.34945415  0.44997269  0.08168279     0.29570
F2003       F  0.38747161  0.44971093  0.07772729    -0.19830
H2004       H  0.34219884  0.49103371  0.04648563     0.17930
H2005       H  0.27801030  0.40876434  0.12184834     0.17940
F2006       F  0.23303289  0.45075957  0.09225808    -0.19820
C2007       C  0.57017691  0.44428048  0.75285259    -0.21260
C2008       C  0.57448710  0.47970159  0.75742367    -0.09300
C2009       C  0.59880585  0.49076732  0.78224076     0.29560
C2010       C  0.61461195  0.46723192  0.80446798    -0.21260
C2011       C  0.60773744  0.43229748  0.80131734    -0.09310
C2012       C  0.58701045  0.42070048  0.77440817     0.29570
F2013       F  0.58065395  0.38694091  0.77054957    -0.19830
H2014       H  0.55156566  0.43460674  0.73427221     0.17930
H2015       H  0.63184643  0.47639020  0.82452816     0.17940
F2016       F  0.60584605  0.52435491  0.78604605    -0.19820
C2017       C  0.42553268  0.60957963  0.78772854    -0.21260
C2018       C  0.42710217  0.60405560  0.82279366    -0.09300
C2019       C  0.44973868  0.57737502  0.83541645     0.29560
C2020       C  0.47039288  0.55620832  0.81293749    -0.21260
C2021       C  0.46948372  0.56208225  0.77772029    -0.09310
C2022       C  0.44682424  0.58902781  0.76532773     0.29570
F2023       F  0.44606311  0.59610977  0.73166826    -0.19830
H2024       H  0.40869140  0.63058753  0.77770533     0.17930
H2025       H  0.48681758  0.53506259  0.82311522     0.17940
F2026       F  0.45127739  0.57142865  0.86929191    -0.19820
C2027       C  0.48175417  0.44661014  0.68199071    -0.21260
C2028       C  0.47506862  0.48210421  0.68059702    -0.09300
C2029       C  0.44744954  0.49544572  0.65922887     0.29560
C2030       C  0.42788981  0.47361001  0.63873373    -0.21260
C2031       C  0.43554867  0.43823182  0.63964297    -0.09310
C2032       C  0.46245694  0.42484894  0.66165182     0.29570
F2033       F  0.46960285  0.39069571  0.66418331    -0.19830
H2034       H  0.50139455  0.43540074  0.69948666     0.17930
H2035       H  0.40717299  0.48441099  0.62185208     0.17940
F2036       F  0.43944923  0.52940470  0.65818309    -0.19820
C2037       C  0.54038574  0.30386278  0.94921999    -0.21260
C2038       C  0.55451469  0.27006934  0.95150143    -0.09300
C2039       C  0.58352630  0.25863257  0.92937862     0.29560
C2040       C  0.59916208  0.28081579  0.90600424    -0.21260
C2041       C  0.58651542  0.31499707  0.90503707    -0.09310
C2042       C  0.55658449  0.32641230  0.92634095     0.29570
F2043       F  0.54385830  0.35943352  0.92569096    -0.19830
H2044       H  0.51691508  0.31283353  0.96525271     0.17930
H2045       H  0.62300937  0.27183732  0.89042115     0.17940
F2046       F  0.59775120  0.22643941  0.93141861    -0.19820
C2047       C  0.47915174  0.30224706  0.09719062    -0.21260
C2048       C  0.44095217  0.31040178  0.09388114    -0.09300
C2049       C  0.42019439  0.29383849  0.06935856     0.29560
C2050       C  0.43769315  0.26957819  0.04825133    -0.21260
C2051       C  0.47590086  0.26111683  0.05169067    -0.09310
C2052       C  0.49636564  0.27704845  0.07673129     0.29570
F2053       F  0.53310683  0.26842176  0.08067406    -0.19830
H2054       H  0.49521918  0.31482611  0.11607247     0.17930
H2055       H  0.42171959  0.25848515  0.02828412     0.17940
F2056       F  0.38316004  0.30168463  0.06532731    -0.19820
C2057       C  0.45372108  0.14937126  0.97337010    -0.21260
C2058       C  0.46757411  0.17931323  0.95888691    -0.09300
C2059       C  0.45730748  0.18899108  0.92584683     0.29560
C2060       C  0.43571167  0.16776683  0.90689762    -0.21260
C2061       C  0.42260134  0.13772615  0.92117943    -0.09310
C2062       C  0.43086893  0.12873180  0.95465527     0.29570
F2063       F  0.41782987  0.09960393  0.96873783    -0.19830
H2064       H  0.46086404  0.14191973  0.99891980     0.17930
H2065       H  0.42866833  0.17500045  0.88124720     0.17940
F2066       F  0.46726772  0.21935659  0.91214667    -0.19820
C2067       C  0.26449705  0.16076880  0.77783248    -0.21260
C2068       C  0.28474693  0.18575772  0.76027034    -0.09300
C2069       C  0.32390708  0.18745612  0.76452603     0.29560
C2070       C  0.34167213  0.16527590  0.78687815    -0.21260
C2071       C  0.32038529  0.14302587  0.80673251    -0.09310
C2072       C  0.28171919  0.14100690  0.80233089     0.29570
F2073       F  0.26046704  0.12064440  0.82242148    -0.19830
H2074       H  0.23453466  0.15859408  0.77472215     0.17930
H2075       H  0.37169971  0.16680563  0.79011607     0.17940
F2076       F  0.34459011  0.21223122  0.74972441    -0.19820
C2077       C  0.29488449  0.27631941  0.65568020    -0.21260
C2078       C  0.28498546  0.28800097  0.68810341    -0.09300
C2079       C  0.29586425  0.32046378  0.69896621     0.29560
C2080       C  0.31630464  0.34106914  0.67693503    -0.21260
C2081       C  0.32657397  0.32882150  0.64471494    -0.09310
C2082       C  0.31578798  0.29656026  0.63419283     0.29570
F2083       F  0.32523415  0.28466110  0.60298136    -0.19830
H2084       H  0.28652616  0.25147363  0.64710542     0.17930
H2085       H  0.32499766  0.36591098  0.68521349     0.17940
F2086       F  0.28798549  0.33158918  0.73106889    -0.19820
C2087       C  0.18221494  0.30180327  0.83542303    -0.21260
C2088       C  0.15281348  0.32196749  0.82287080    -0.09300
C2089       C  0.14229556  0.31931827  0.78899143     0.29560
C2090       C  0.16202117  0.29700433  0.76745516    -0.21260
C2091       C  0.19262432  0.27787589  0.77949665    -0.09310
C2092       C  0.20264243  0.28015476  0.81368312     0.29570
F2093       F  0.23356275  0.26337155  0.82547770    -0.19830
H2094       H  0.19016351  0.30382194  0.86166290     0.17930
H2095       H  0.15438918  0.29550874  0.74110155     0.17940
F2096       F  0.11289108  0.33807645  0.77686930    -0.19820
C2097       C  0.43801463  0.77945808  0.55266161    -0.21260
C2098       C  0.47597510  0.76922570  0.55389903    -0.09300
C2099       C  0.49930372  0.78394107  0.57771614     0.29560
C2100       C  0.48440250  0.80848508  0.60024160    -0.21260
C2101       C  0.44625700  0.81794566  0.59922807    -0.09310
C2102       C  0.42314770  0.80352019  0.57525351     0.29570
F2103       F  0.38625112  0.81308637  0.57342524    -0.19830
H2104       H  0.41997051  0.76934793  0.53367160     0.17930
H2105       H  0.50220326  0.81930981  0.61901526     0.17940
F2106       F  0.53614876  0.77428904  0.57938496    -0.19820
C2107       C  0.28625555  0.93913306  0.56442195    -0.21260
C2108       C  0.28458560  0.97453747  0.57088341    -0.09300
C2109       C  0.30914626  0.98827026  0.59413119     0.29560
C2110       C  0.33550192  0.96704878  0.60973869    -0.21260
C2111       C  0.33694908  0.93187495  0.60303144    -0.09310
C2112       C  0.31183748  0.91787554  0.58073591     0.29570
F2113       F  0.31265176  0.88382425  0.57419564    -0.19830
H2114       H  0.26863961  0.92786571  0.54583778     0.17930
H2115       H  0.35400752  0.97791277  0.62792935     0.17940
F2116       F  0.30766757  0.02204885  0.60172810    -0.19820
C2117       C  0.32537375  0.05116957  0.47470993    -0.21260
C2118       C  0.28652174  0.05796087  0.47909531    -0.09300
C2119       C  0.26907733  0.08367743  0.45966126     0.29560
C2120       C  0.29004908  0.10156417  0.43564311    -0.21260
C2121       C  0.32870845  0.09453353  0.43131010    -0.09310
C2122       C  0.34646661  0.06964881  0.45128664     0.29570
F2123       F  0.38388768  0.06246829  0.44732792    -0.19830
H2124       H  0.33930607  0.03084116  0.48864760     0.17930
H2125       H  0.27626702  0.12140972  0.42089156     0.17940
F2126       F  0.23184570  0.09146582  0.46394472    -0.19820
C2127       C  0.14771606  0.96256194  0.44226911    -0.21260
C2128       C  0.15676773  0.92743516  0.44265088    -0.09300
C2129       C  0.18204584  0.91416044  0.46610295     0.29560
C2130       C  0.19928373  0.93613573  0.48800721    -0.21260
C2131       C  0.19083867  0.97149632  0.48733507    -0.09310
C2132       C  0.16421918  0.98444255  0.46474661     0.29570
F2133       F  0.15463496  0.01822763  0.46409274    -0.19830
H2134       H  0.12732123  0.97303435  0.42490299     0.17930
H2135       H  0.22043920  0.92553137  0.50446705     0.17940
F2136       F  0.19104881  0.88024215  0.46700109    -0.19820
C2137       C  0.57815225  0.77617383  0.40025771    -0.21260
C2138       C  0.60580853  0.79479227  0.41561454    -0.09300
C2139       C  0.61290799  0.79026042  0.45011488     0.29560
C2140       C  0.59195376  0.76789399  0.46934073    -0.21260
C2141       C  0.56136455  0.75208800  0.45523828    -0.09310
C2142       C  0.55510188  0.75556118  0.42012914     0.29570
F2143       F  0.52485515  0.74199919  0.40559104    -0.19830
H2144       H  0.57248453  0.77975185  0.37360941     0.17930
H2145       H  0.59765490  0.76519830  0.49608272     0.17940
F2146       F  0.63860198  0.80895085  0.46581773    -0.19820
C2147       C  0.56198111  0.96108594  0.30022887    -0.21260
C2148       C  0.57491775  0.96044987  0.26620478    -0.09300
C2149       C  0.59437116  0.93115445  0.25400729     0.29560
C2150       C  0.60395484  0.90491754  0.27587208    -0.21260
C2151       C  0.59516519  0.90784618  0.31050294    -0.09310
C2152       C  0.57224881  0.93521646  0.32240047     0.29570
F2153       F  0.56096131  0.93763472  0.35553335    -0.19830
H2154       H  0.54325600  0.98121118  0.30964207     0.17930
H2155       H  0.62042307  0.88332509  0.26602366     0.17940
F2156       F  0.60392321  0.92756091  0.22099133    -0.19820
C2157       C  0.42306109  0.96787965  0.15866544    -0.21260
C2158       C  0.42064377  0.93340448  0.16768122    -0.09300
C2159       C  0.44297892  0.91956240  0.19310024     0.29560
C2160       C  0.46943367  0.93959321  0.20777138    -0.21260
C2161       C  0.47461745  0.97324455  0.19639538    -0.09310
C2162       C  0.45006674  0.98779558  0.17292755     0.29570
F2163       F  0.45332783  0.02060719  0.16276325    -0.19830
H2164       H  0.40585266  0.97868703  0.13895516     0.17930
H2165       H  0.48654040  0.92846768  0.22746365     0.17940
F2166       F  0.44000835  0.88646492  0.20284448    -0.19820
C2167       C  0.47892220  0.08816657  0.25942780    -0.21260
C2168       C  0.50544082  0.06443945  0.27191952    -0.09300
C2169       C  0.50687220  0.05934733  0.30738721     0.29560
C2170       C  0.47890556  0.07352861  0.32869460    -0.21260
C2171       C  0.44937008  0.09291610  0.31519932    -0.09310
C2172       C  0.45033946  0.10131443  0.28065864     0.29570
F2173       F  0.42365395  0.12230279  0.26746878    -0.19830
H2174       H  0.47810434  0.09381070  0.23253366     0.17930
H2175       H  0.47992120  0.06877816  0.35574778     0.17940
F2176       F  0.53362872  0.03935840  0.32180572    -0.19820
C2177       C  0.39459495  0.66866280  0.44644276    -0.21260
C2178       C  0.41118533  0.64127595  0.42826917    -0.09300
C2179       C  0.44857903  0.63128231  0.43367187     0.29560
C2180       C  0.46963564  0.64852725  0.45641673    -0.21260
C2181       C  0.45450485  0.67764554  0.47255369    -0.09310
C2182       C  0.41649684  0.68753048  0.46798368     0.29570
F2183       F  0.40136790  0.71648239  0.48230695    -0.19830
H2184       H  0.36544977  0.67618791  0.44284799     0.17930
H2185       H  0.49865624  0.64039399  0.45980815     0.17940
F2186       F  0.46490445  0.60468498  0.41674722    -0.19820
C2187       C  0.14067280  0.81698029  0.29611278    -0.21260
C2188       C  0.15206578  0.81298372  0.32967176    -0.09300
C2189       C  0.17048264  0.78276642  0.33964539     0.29560
C2190       C  0.17911039  0.75763441  0.31566761    -0.21260
C2191       C  0.16859800  0.76196940  0.28169725    -0.09310
C2192       C  0.14794037  0.79137254  0.27257653     0.29570
F2193       F  0.13673020  0.79628220  0.24042105    -0.19830
H2194       H  0.12494673  0.83959276  0.28819787     0.17930
H2195       H  0.19610587  0.73587060  0.32339385     0.17940
F2196       F  0.18101259  0.77798604  0.37218044    -0.19820
C2197       C  0.30293995  0.62711240  0.28360634    -0.21260
C2198       C  0.29488969  0.62738626  0.31859283    -0.09300
C2199       C  0.26347420  0.64581883  0.33149093     0.29560
C2200       C  0.24206090  0.66576615  0.30971304    -0.21260
C2201       C  0.25141361  0.66738453  0.27468142    -0.09310
C2202       C  0.28136087  0.64672806  0.26185875     0.29570
F2203       F  0.29095791  0.64649532  0.22851076    -0.19830
H2204       H  0.32653087  0.61213277  0.27301264     0.17930
H2205       H  0.21963113  0.68135210  0.32107156     0.17940
F2206       F  0.25489638  0.64641242  0.36526824    -0.19820
C2207       C  0.32761244  0.79778968  0.19250686    -0.21260
C2208       C  0.31116936  0.81857956  0.16772804    -0.09300
C2209       C  0.27386266  0.81382859  0.15880183     0.29560
C2210       C  0.25337700  0.78846433  0.17446340    -0.21260
C2211       C  0.26917909  0.76805285  0.19987342    -0.09310
C2212       C  0.30656860  0.77300997  0.20906067     0.29570
F2213       F  0.32220766  0.75525720  0.23493981    -0.19830
H2214       H  0.35655109  0.80109126  0.19929926     0.17930
H2215       H  0.22462763  0.78521692  0.16740015     0.17940
F2216       F  0.25759684  0.83283539  0.13407010    -0.19820
C2217       C  0.95324589  0.99200678  0.67574707    -0.21260
C2218       C  0.97311833  0.97710150  0.70226905    -0.09300
C2219       C  0.97410065  0.94127551  0.70637436     0.29560
C2220       C  0.95778202  0.92071722  0.68254322    -0.21260
C2221       C  0.93881040  0.93577591  0.65563916    -0.09310
C2222       C  0.93562901  0.97154247  0.65283733     0.29570
F2223       F  0.91622548  0.98673180  0.62747999    -0.19830
H2224       H  0.95200503  0.01947323  0.67236708     0.17930
H2225       H  0.95910513  0.89320332  0.68551644     0.17940
F2226       F  0.99021450  0.92620986  0.73362050    -0.19820
C2227       C  0.10251082  0.96575369  0.76603896    -0.21260
C2228       C  0.07296659  0.98575991  0.78051009    -0.09300
C2229       C  0.06199748  0.98096199  0.81477392     0.29560
C2230       C  0.08083501  0.95717315  0.83428087    -0.21260
C2231       C  0.10975726  0.93694301  0.81971977    -0.09310
C2232       C  0.12072425  0.94108758  0.78552110     0.29570
F2233       F  0.14940810  0.92192851  0.77129386    -0.19830
H2234       H  0.11054998  0.96856703  0.73949569     0.17930
H2235       H  0.07229991  0.95398788  0.86069121     0.17940
F2236       F  0.03134095  0.99730113  0.82890605    -0.19820
C2237       C  0.98051501  0.07109782  0.81920890    -0.21260
C2238       C  0.97691438  0.07315429  0.78385683    -0.09300
C2239       C  0.95343556  0.09863294  0.77001651     0.29560
C2240       C  0.93450753  0.12204884  0.79142936    -0.21260
C2241       C  0.93918032  0.12024585  0.82663164    -0.09310
C2242       C  0.96206207  0.09451193  0.84045351     0.29570
F2243       F  0.96572404  0.09136680  0.87453266    -0.19830
H2244       H  0.99733045  0.05109372  0.83066523     0.17930
H2245       H  0.91676957  0.14191595  0.78052779     0.17940
F2246       F  0.94939966  0.10121626  0.73599618    -0.19820
C2247       C  0.00191371  0.66795738  0.96685921    -0.21260
C2248       C  0.98243027  0.69301688  0.98627736    -0.09300
C2249       C  0.94345891  0.69817447  0.98245062     0.29560
C2250       C  0.92459888  0.67787149  0.96024994    -0.21260
C2251       C  0.94437659  0.65327277  0.94054615    -0.09310
C2252       C  0.98326083  0.64873164  0.94340118     0.29570
F2253       F  0.00287794  0.62530304  0.92410033    -0.19830
H2254       H  0.03181586  0.66420277  0.96940912     0.17930
H2255       H  0.89451802  0.68182977  0.95793708     0.17940
F2256       F  0.92383571  0.72399967  0.99846172    -0.19820
C2257       C  0.96491589  0.81739092  0.05717314    -0.21260
C2258       C  0.97583442  0.78454172  0.06841880    -0.09300
C2259       C  0.96054636  0.77166639  0.09877165     0.29560
C2260       C  0.93499398  0.79171774  0.11782607    -0.21260
C2261       C  0.92502713  0.82469893  0.10684789    -0.09310
C2262       C  0.94004815  0.83761639  0.07656874     0.29570
F2263       F  0.93052003  0.86959933  0.06582708    -0.19830
H2264       H  0.97543521  0.82732628  0.03318276     0.17930
H2265       H  0.92423046  0.78217476  0.14185976     0.17940
F2266       F  0.97104450  0.74025167  0.11026386    -0.19820
C2267       C  0.09392146  0.80775565  0.98887522    -0.21260
C2268       C  0.06668976  0.78655695  0.97621752    -0.09300
C2269       C  0.05623793  0.78969033  0.94203845     0.29560
C2270       C  0.07439534  0.81248171  0.92068475    -0.21260
C2271       C  0.10153913  0.83347755  0.93356126    -0.09310
C2272       C  0.11062698  0.83157911  0.96785328     0.29570
F2273       F  0.13702355  0.85170549  0.98055111    -0.19830
H2274       H  0.10201856  0.80604754  0.01512688     0.17930
H2275       H  0.06722162  0.81386772  0.89418076     0.17940
F2276       F  0.02769079  0.77177304  0.92949212    -0.19820
C2277       C  0.77920278  0.09275508  0.96018658    -0.21260
C2278       C  0.79931426  0.06675707  0.97685975    -0.09300
C2279       C  0.83873471  0.06749175  0.97763608     0.29560
C2280       C  0.85761196  0.09328335  0.96046810    -0.21260
C2281       C  0.83739337  0.11760401  0.94157323    -0.09310
C2282       C  0.79798388  0.11741250  0.94189954     0.29570
F2283       F  0.77752182  0.14039411  0.92374193    -0.19830
H2284       H  0.74877394  0.09279468  0.95970626     0.17930
H2285       H  0.88804728  0.09314936  0.96039906     0.17940
F2286       F  0.85907055  0.04211723  0.99266111    -0.19820
C2287       C  0.68249680  0.99645970  0.93497502    -0.21260
C2288       C  0.70971390  0.97775687  0.95276871    -0.09300
C2289       C  0.71434219  0.94238234  0.94800036     0.29560
C2290       C  0.68963036  0.92548046  0.92804539    -0.21260
C2291       C  0.66070982  0.94377576  0.91219651    -0.09310
C2292       C  0.65805968  0.97951332  0.91443721     0.29570
F2293       F  0.63042585  0.99764369  0.89881047    -0.19830
H2294       H  0.67921751  0.02386383  0.93815484     0.17930
H2295       H  0.69237914  0.89793930  0.92574395     0.17940
F2296       F  0.74224858  0.92415360  0.96318783    -0.19820
C2297       C  0.80487449  0.96810349  0.11410809    -0.21260
C2298       C  0.80708505  0.93248657  0.11088048    -0.09300
C2299       C  0.79142686  0.91660905  0.08319200     0.29560
C2300       C  0.77625852  0.93656319  0.05755184    -0.21260
C2301       C  0.77530457  0.97251487  0.05994988    -0.09310
C2302       C  0.78811557  0.98804955  0.08931221     0.29570
F2303       F  0.78552330  0.02242029  0.09359867    -0.19830
H2304       H  0.81730347  0.98055785  0.13531655     0.17930
H2305       H  0.76732295  0.92377627  0.03497462     0.17940
F2306       F  0.79407784  0.88216318  0.07936980    -0.19820
C2307       C  0.83427050  0.70551705  0.79486800    -0.21260
C2308       C  0.79552802  0.70215640  0.79055260    -0.09300
C2309       C  0.77618198  0.67711532  0.80901230     0.29560
C2310       C  0.79531698  0.65590224  0.83139644    -0.21260
C2311       C  0.83402970  0.65899347  0.83515172    -0.09310
C2312       C  0.85353234  0.68384245  0.81675974     0.29570
F2313       F  0.89103263  0.68742897  0.82033117    -0.19830
H2314       H  0.84960639  0.72521987  0.78167408     0.17930
H2315       H  0.78014566  0.63625777  0.84490539     0.17940
F2316       F  0.73898054  0.67268842  0.80486034    -0.19820
C2317       C  0.70010844  0.82549932  0.77422315    -0.21260
C2318       C  0.69515808  0.79000247  0.77634654    -0.09300
C2319       C  0.66594078  0.77730130  0.79674106     0.29560
C2320       C  0.64315884  0.79975101  0.81584169    -0.21260
C2321       C  0.64916575  0.83495179  0.81455041    -0.09310
C2322       C  0.67707050  0.84793739  0.79306433     0.29570
F2323       F  0.68348033  0.88192610  0.79188075    -0.19830
H2324       H  0.72287881  0.83592111  0.75920092     0.17930
H2325       H  0.62096445  0.78967115  0.83191245     0.17940
F2326       F  0.66000828  0.74330671  0.79870912    -0.19820
C2327       C  0.81914837  0.83909770  0.68014447    -0.21260
C2328       C  0.83524284  0.82494782  0.65061103    -0.09300
C2329       C  0.83279845  0.78991069  0.64380254     0.29560
C2330       C  0.81320001  0.76924526  0.66639382    -0.21260
C2331       C  0.79637734  0.78355524  0.69566092    -0.09310
C2332       C  0.80043396  0.81840005  0.70299984     0.29570
F2333       F  0.78698832  0.83222770  0.73262152    -0.19830
H2334       H  0.82188183  0.86596147  0.68583004     0.17930
H2335       H  0.81063813  0.74242181  0.66098652     0.17940
F2336       F  0.84828440  0.77609068  0.61492574    -0.19820
loop_ 
_geom_bond_atom_site_label_1 
_geom_bond_atom_site_label_2 
_geom_bond_distance 
_geom_bond_site_symmetry_2 
_ccdc_geom_bond_type 
O1           Ni7   1.907       .  S
O1           C22   1.268       .  A
O2          Ni25   1.986       .  S
O2           C11   1.285       .  A
O3           Ni7   1.929       .  S
O3          Ni25   1.953       .  S
O3          Ni19   1.924       .  S
O3           H26   0.967       .  S
C4           O21   1.288       .  A
C4           O13   1.270       .  A
C4          C428   1.524       .  S
O5          Ni24   1.897       .  S
O5           C11   1.268       .  A
O6          Ni24   1.970       .  S
O6            C8   1.281       .  A
Ni7          O10   1.904       .  S
Ni7          O12   1.958       .  S
C8           O18   1.286       .  A
C8          C719   1.555       .  S
O9          Ni25   1.973       .  S
O9           C15   1.284       .  A
O10          C15   1.267       .  A
C11        C1132   1.515       .  S
O12          C14   1.280       .  A
O13         Ni24   1.906       .  S
C14          O20   1.281       .  A
C14         C654   1.526       .  S
C15         C946   1.517       .  S
H16          O17   0.966       .  S
O17         Ni25   1.916       .  S
O17         Ni19   1.939       .  S
O17         Ni24   1.920       .  S
O18         Ni19   2.009       .  S
Ni19         O23   1.976       .  S
Ni19         O21   1.980       .  S
O20         Ni25   1.985       .  S
C22          O23   1.286       .  A
C22        C1043   1.510       .  S
O27         Ni33   1.920       .  S
O27          C48   1.272       .  A
O28         Ni51   1.980       .  S
O28          C37   1.289       .  A
O29         Ni33   1.918       .  S
O29         Ni51   1.949       .  S
O29         Ni45   1.910       .  S
O29          H52   0.967       .  S
C30          O47   1.280       .  A
C30          O39   1.266       .  A
C30         C510   1.503       .  S
O31         Ni50   1.918       .  S
O31          C37   1.269       .  A
O32         Ni50   1.950       .  S
O32          C34   1.280       .  A
Ni33         O36   1.893       .  S
Ni33         O38   1.958       .  S
C34          O44   1.279       .  A
C34         C909   1.511       .  S
O35         Ni51   1.966       .  S
O35          C41   1.279       .  A
O36          C41   1.263       .  A
C37        C1131   1.513       .  S
O38          C40   1.285       .  A
O39         Ni50   1.899       .  S
C40          O46   1.288       .  A
C40         C668   1.527       .  S
C41         C775   1.503       .  S
H42          O43   0.966       .  S
O43         Ni51   1.911       .  S
O43         Ni45   1.953       .  S
O43         Ni50   1.921       .  S
O44         Ni45   1.976       .  S
Ni45         O49   1.976       .  S
Ni45         O47   1.965       .  S
O46         Ni51   1.995       .  S
C48          O49   1.288       .  A
C48        C1333   1.516       .  S
C53        C2308   1.471       .  S
C53          C54   1.402       .  A
C53          C58   1.402       .  A
C54          C55   1.395       .  A
C54          H59   1.084       .  S
C55        C2331   1.455       .  S
C55          C56   1.390       .  A
C56          C57   1.389       .  A
C56          H60   1.085       .  S
C57        C2318   1.464       .  S
C57          C58   1.399       .  A
C58          H61   1.083       .  S
C62        C2288   1.453       .  S
C62          C63   1.391   1_556  A
C62          C67   1.386   1_565  A
C63          C64   1.395       .  A
C63          H68   1.084       .  S
C64        C2301   1.471       .  S
C64          C65   1.407   1_565  A
C65          C66   1.400   1_554  A
C65          H69   1.082       .  S
C66        C2278   1.464       .  S
C66          C67   1.397       .  A
C67          H70   1.085       .  S
C71        C2258   1.461   1_455  S
C71          C72   1.396   1_455  A
C71          C76   1.394       .  A
C72          C73   1.398   1_655  A
C72          H77   1.084       .  S
C73        C2248   1.467   1_454  S
C73          C74   1.398   1_554  A
C74          C75   1.392       .  A
C74          H78   1.083       .  S
C75        C2268   1.463       .  S
C75          C76   1.393   1_556  A
C76          H79   1.084       .  S
C80        C2218   1.463       .  S
C80          C81   1.402   1_565  A
C80          C85   1.393   1_655  A
C81          C82   1.401       .  A
C81          H86   1.084       .  S
C82        C2238   1.467       .  S
C82          C83   1.398   1_655  A
C83          C84   1.392       .  A
C83          H87   1.085       .  S
C84        C2228   1.458   1_545  S
C84          C85   1.389   1_545  A
C85          H88   1.084       .  S
O89         Ni97   1.882       .  S
O89          C99   1.276       .  A
O90         Ni97   1.929       .  S
O90         C100   1.287       .  A
O91         Ni97   1.934       .  S
O91         C101   1.284       .  A
O92         Ni97   1.892       .  S
O92         C102   1.278       .  A
O93         Ni98   1.894       .  S
O93         C102   1.277       .  A
O94         Ni98   1.917       .  S
O94         C101   1.286       .  A
O95         Ni98   1.933       .  S
O95         C100   1.281       .  A
O96         Ni98   1.898       .  S
O96          C99   1.277       .  A
Ni97        Ni98   2.393       .  S
C99        C2231   1.439       .  S
C100        C272   1.500       .  S
C101        C324   1.499       .  S
C102       C2271   1.446       .  S
O103       Ni111   1.895       .  S
O103        C113   1.278       .  A
O104       Ni111   1.926       .  S
O104        C114   1.284       .  A
O105       Ni111   1.924       .  S
O105        C115   1.283       .  A
O106       Ni111   1.886       .  S
O106        C116   1.275       .  A
O107       Ni112   1.914       .  S
O107        C116   1.281       .  A
O108       Ni112   1.948       .  S
O108        C115   1.288       .  A
O109       Ni112   1.942       .  S
O109        C114   1.288       .  A
O110       Ni112   1.892       .  S
O110        C113   1.276       .  A
Ni111      Ni112   2.393       .  S
C113       C2261   1.440       .  S
C114        C540   1.507       .  S
C115        C369   1.510       .  S
C116       C2298   1.449       .  S
O117       Ni125   1.906       .  S
O117        C127   1.281       .  A
O118       Ni125   1.945       .  S
O118        C128   1.289       .  A
O119       Ni125   1.917       .  S
O119        C129   1.285       .  A
O120       Ni125   1.870       .  S
O120        C130   1.271       .  A
O121       Ni126   1.922       .  S
O121        C130   1.284       .  A
O122       Ni126   1.964       .  S
O122        C129   1.291       .  A
O123       Ni126   1.952       .  S
O123        C128   1.289       .  A
O124       Ni126   1.882       .  S
O124        C127   1.273       .  A
Ni125      Ni126   2.390       .  S
C127       C2328   1.439       .  S
C128        C858   1.525       .  S
C129        C343   1.520       .  S
C130       C2221   1.448       .  S
O131       Ni139   1.880       .  S
O131        C141   1.274       .  A
O132       Ni139   1.937       .  S
O132        C142   1.288       .  A
O133       Ni139   1.963       .  S
O133        C143   1.292       .  A
O134       Ni139   1.908       .  S
O134        C144   1.280       .  A
O135       Ni140   1.897       .  S
O135        C144   1.277       .  A
O136       Ni140   1.967       .  S
O136        C143   1.293       .  A
O137       Ni140   1.971       .  S
O137        C142   1.294       .  A
O138       Ni140   1.909       .  S
O138        C141   1.281       .  A
Ni139      Ni140   2.385       .  S
C141       C2251   1.449       .  S
C142        C822   1.541       .  S
C143        C284   1.551       .  S
C144       C2311   1.454       .  S
O145       Ni153   1.883       .  S
O145        C155   1.275       .  A
O146       Ni153   1.926       .  S
O146        C156   1.283       .  A
O147       Ni153   1.920       .  S
O147        C157   1.286       .  A
O148       Ni153   1.887       .  S
O148        C158   1.278       .  A
O149       Ni154   1.897       .  S
O149        C158   1.277       .  A
O150       Ni154   1.942       .  S
O150        C157   1.285       .  A
O151       Ni154   1.958       .  S
O151        C156   1.292       .  A
O152       Ni154   1.907       .  S
O152        C155   1.280       .  A
Ni153      Ni154   2.393       .  S
C155       C2321   1.445       .  S
C156        C394   1.514       .  S
C157        C235   1.514       .  S
C158       C2291   1.445       .  S
O159       Ni167   1.905       .  S
O159        C169   1.279       .  A
O160       Ni167   1.953       .  S
O160        C170   1.290       .  A
O161       Ni167   1.953       .  S
O161        C171   1.289       .  A
O162       Ni167   1.903       .  S
O162        C172   1.281       .  A
O163       Ni168   1.891       .  S
O163        C172   1.276       .  A
O164       Ni168   1.937       .  S
O164        C171   1.286       .  A
O165       Ni168   1.940       .  S
O165        C170   1.287       .  A
O166       Ni168   1.894       .  S
O166        C169   1.279       .  A
Ni167      Ni168   2.390       .  S
C169       C2281   1.457       .  S
C170       C1238   1.526       .  S
C171        C566   1.527       .  S
C172       C2241   1.450       .  S
O173       Ni179   1.926       .  S
O173        C194   1.275       .  A
O174       Ni197   1.965       .  S
O174        C183   1.283       .  A
O175       Ni179   1.918       .  S
O175       Ni197   1.932       .  S
O175       Ni191   1.907       .  S
O175        H198   0.967       .  S
C176        O193   1.280       .  A
C176        O185   1.263       .  A
C176       C1012   1.505       .  S
O177       Ni196   1.905       .  S
O177        C183   1.268       .  A
O178       Ni196   1.950       .  S
O178        C180   1.282       .  A
Ni179       O182   1.926       .  S
Ni179       O184   1.983       .  S
C180        O190   1.288       .  A
C180        C427   1.525       .  S
O181       Ni197   1.971       .  S
O181        C187   1.285       .  A
O182        C187   1.276       .  A
C183        C761   1.500       .  S
O184        C186   1.284       .  A
O185       Ni196   1.900       .  S
C186        O192   1.283       .  A
C186       C1277   1.554       .  S
C187        C669   1.524       .  S
H188        O189   0.966       .  S
O189       Ni197   1.937       .  S
O189       Ni191   1.949       .  S
O189       Ni196   1.919       .  S
O190       Ni191   1.999       .  S
Ni191       O195   1.973       .  S
Ni191       O193   1.970       .  S
O192       Ni197   1.994       .  S
C194        O195   1.285       .  A
C194       C1173   1.519       .  S
O199       Ni205   1.911       .  S
O199        C220   1.270       .  A
O200       Ni223   1.959       .  S
O200        C209   1.278       .  A
O201       Ni205   1.918       .  S
O201       Ni223   1.943       .  S
O201       Ni217   1.926       .  S
O201        H224   0.966       .  S
C202        O219   1.292       .  A
C202        O211   1.274       .  A
C202        C655   1.531       .  S
O203       Ni222   1.909       .  S
O203        C209   1.269       .  A
O204       Ni222   1.951       .  S
O204        C206   1.276       .  A
Ni205       O208   1.917       .  S
Ni205       O210   1.956       .  S
C206        O216   1.282       .  A
C206        C923   1.527       .  S
O207       Ni223   1.960       .  S
O207        C213   1.277       .  A
O208        C213   1.267       .  A
C209        C511   1.497       .  S
O210        C212   1.281       .  A
O211       Ni222   1.922       .  S
C212        O218   1.282       .  A
C212       C1172   1.523       .  S
C213       C1309   1.513       .  S
H214        O215   0.966       .  S
O215       Ni223   1.916       .  S
O215       Ni217   1.943       .  S
O215       Ni222   1.916       .  S
O216       Ni217   1.985       .  S
Ni217       O221   1.990       .  S
Ni217       O219   1.987       .  S
O218       Ni223   1.984       .  S
C220        O221   1.293       .  A
C220       C1067   1.519       .  S
O225       Ni231   1.907       .  S
O225        C246   1.268       .  A
O226       Ni249   1.971       .  S
O226        C235   1.287       .  A
O227       Ni231   1.923       .  S
O227       Ni249   1.949       .  S
O227       Ni243   1.928       .  S
O227        H250   0.966       .  S
C228        O245   1.288       .  A
C228        O237   1.270       .  A
C228        C627   1.532       .  S
O229       Ni248   1.919       .  S
O229        C235   1.272       .  A
O230       Ni248   1.968       .  S
O230        C232   1.284       .  A
Ni231       O234   1.893       .  S
Ni231       O236   1.947       .  S
C232        O242   1.286       .  A
C232        C788   1.541       .  S
O233       Ni249   1.979       .  S
O233        C239   1.281       .  A
O234        C239   1.263       .  A
O236        C238   1.281       .  A
O237       Ni248   1.909       .  S
C238        O244   1.284       .  A
C238        C496   1.519       .  S
C239        C961   1.511       .  S
H240        O241   0.967       .  S
O241       Ni249   1.917       .  S
O241       Ni243   1.942       .  S
O241       Ni248   1.923       .  S
O242       Ni243   1.999       .  S
Ni243       O247   1.977       .  S
Ni243       O245   1.993       .  S
O244       Ni249   1.991       .  S
C246        O247   1.292       .  A
C246       C1044   1.505       .  S
O251       Ni257   1.928   1_556  S
O251        C272   1.274       .  A
O252       Ni275   1.955       .  S
O252        C261   1.283       .  A
O253       Ni257   1.924       .  S
O253       Ni275   1.938       .  S
O253       Ni269   1.909   1_554  S
O253        H276   0.967   1_554  S
C254        O271   1.275       .  A
C254        O263   1.266       .  A
C254       C1108   1.492       .  S
O255       Ni274   1.915   1_554  S
O255        C261   1.271       .  A
O256       Ni274   1.957       .  S
O256        C258   1.281       .  A
Ni257       O260   1.908       .  S
Ni257       O262   1.982       .  S
C258        O268   1.286       .  A
C258        C626   1.539       .  S
O259       Ni275   1.970       .  S
O259        C265   1.282       .  A
O260        C265   1.270       .  A
C261        C760   1.497       .  S
O262        C264   1.285       .  A
O263       Ni274   1.912       .  S
C264        O270   1.287       .  A
C264       C1360   1.556       .  S
C265        C465   1.514       .  S
H266        O267   0.966       .  S
O267       Ni275   1.919       .  S
O267       Ni269   1.936   1_554  S
O267       Ni274   1.924   1_554  S
O268       Ni269   2.003       .  S
Ni269       O273   1.945       .  S
Ni269       O271   1.943       .  S
O270       Ni275   2.008       .  S
C272        O273   1.278       .  A
O277       Ni283   1.905   1_556  S
O277        C298   1.271       .  A
O278       Ni301   1.935       .  S
O278        C287   1.268       .  A
O279       Ni283   1.914   1_655  S
O279       Ni301   1.923       .  S
O279       Ni295   1.921   1_654  S
O279        H302   0.967   1_554  S
C280        O297   1.293       .  A
C280        O289   1.272       .  A
C280       C1109   1.499       .  S
O281       Ni300   1.889       .  S
O281        C287   1.266       .  A
O282       Ni300   1.967   1_556  S
O282        C284   1.279       .  A
Ni283       O286   1.915   1_455  S
Ni283       O288   1.971       .  S
C284        O294   1.281       .  A
O285       Ni301   1.960       .  S
O285        C291   1.277       .  A
O286        C291   1.267       .  A
C287        C802   1.478       .  S
O288        C290   1.280       .  A
O289       Ni300   1.902   1_456  S
C290        O296   1.290       .  A
C290       C1278   1.563       .  S
C291       C1200   1.508       .  S
H292        O293   0.966       .  S
O293       Ni301   1.928   1_455  S
O293       Ni295   1.930   1_554  S
O293       Ni300   1.918   1_455  S
O294       Ni295   1.995   1_655  S
Ni295       O299   1.944       .  S
Ni295       O297   1.975       .  S
O296       Ni301   2.022   1_455  S
C298        O299   1.278       .  A
C298        C697   1.487       .  S
O303       Ni309   1.913       .  S
O303        C324   1.270       .  A
O304       Ni327   1.989       .  S
O304        C313   1.292       .  A
O305       Ni309   1.913       .  S
O305       Ni327   1.958   1_565  S
O305       Ni321   1.917   1_565  S
O305        H328   0.965       .  S
C306        O323   1.280       .  A
C306        O315   1.261       .  A
C306       C1346   1.499       .  S
O307       Ni326   1.910       .  S
O307        C313   1.270       .  A
O308       Ni326   1.959       .  S
O308        C310   1.282       .  A
Ni309       O312   1.882       .  S
Ni309       O314   1.952       .  S
C310        O320   1.279       .  A
C310        C683   1.511       .  S
O311       Ni327   1.984   1_565  S
O311        C317   1.279       .  A
O312        C317   1.262       .  A
C313        C924   1.521       .  S
O314        C316   1.284       .  A
O315       Ni326   1.891       .  S
C316        O322   1.289       .  A
C316       C1094   1.525       .  S
C317        C497   1.520       .  S
H318        O319   0.969       .  S
O319       Ni327   1.907       .  S
O319       Ni321   1.943       .  S
O319       Ni326   1.916       .  S
O320       Ni321   1.973       .  S
Ni321       O325   1.962   1_545  S
Ni321       O323   1.970       .  S
O322       Ni327   1.998   1_565  S
C324        O325   1.285       .  A
O329       Ni335   1.878       .  S
O329        C350   1.263       .  A
O330       Ni353   1.952       .  S
O330        C339   1.276       .  A
O331       Ni335   1.919       .  S
O331       Ni353   1.924       .  S
O331       Ni347   1.948       .  S
O331        H354   0.966       .  S
C332        O349   1.298       .  A
C332        O341   1.278       .  A
C332        C720   1.552       .  S
O333       Ni352   1.896       .  S
O333        C339   1.267       .  A
O334       Ni352   1.958       .  S
O334        C336   1.275       .  A
Ni335       O338   1.912       .  S
Ni335       O340   1.947       .  S
C336        O346   1.278       .  A
C336       C1215   1.531       .  S
O337       Ni353   2.000       .  S
O337        C343   1.299       .  A
O338        C343   1.272       .  A
C339       C1080   1.491       .  S
O340        C342   1.275       .  A
O341       Ni352   1.942       .  S
C342        O348   1.269       .  A
C342        C960   1.513       .  S
H344        O345   0.966       .  S
O345       Ni353   1.949       .  S
O345       Ni347   1.928       .  S
O345       Ni352   1.921       .  S
O346       Ni347   1.974       .  S
Ni347       O351   1.964       .  S
Ni347       O349   2.009       .  S
O348       Ni353   1.956       .  S
C350        O351   1.277       .  A
C350        C450   1.496       .  S
O355       Ni361   1.912       .  S
O355        C376   1.273       .  A
O356       Ni379   1.941       .  S
O356        C365   1.270       .  A
O357       Ni361   1.915   1_655  S
O357       Ni379   1.921       .  S
O357       Ni373   1.924   1_655  S
O357        H380   0.967       .  S
C358        O375   1.293       .  A
C358        O367   1.270       .  A
C358       C1011   1.499       .  S
O359       Ni378   1.893       .  S
O359        C365   1.263       .  A
O360       Ni378   1.944       .  S
O360        C362   1.275       .  A
Ni361       O364   1.931   1_455  S
Ni361       O366   1.977       .  S
C362        O372   1.276       .  A
C362       C1214   1.520       .  S
O363       Ni379   1.957       .  S
O363        C369   1.286       .  A
O364        C369   1.278       .  A
C365        C803   1.484       .  S
O366        C368   1.282       .  A
O367       Ni378   1.908   1_455  S
C368        O374   1.277       .  A
C368       C1361   1.548       .  S
H370        O371   0.966       .  S
O371       Ni379   1.929   1_455  S
O371       Ni373   1.938       .  S
O371       Ni378   1.923   1_455  S
O372       Ni373   1.973   1_655  S
Ni373       O377   1.964       .  S
Ni373       O375   1.972       .  S
O374       Ni379   1.982   1_455  S
C376        O377   1.279       .  A
C376        C525   1.509       .  S
O381       Ni387   1.916   1_554  S
O381        C402   1.270       .  A
O382       Ni405   1.950       .  S
O382        C391   1.281       .  A
O383       Ni387   1.917   1_544  S
O383       Ni405   1.932   1_554  S
O383       Ni399   1.919   1_545  S
O383        H406   0.965       .  S
C384        O401   1.282       .  A
C384        O393   1.271       .  A
C384        C464   1.519       .  S
O385       Ni404   1.927   1_546  S
O385        C391   1.273       .  A
O386       Ni404   1.966   1_545  S
O386        C388   1.286       .  A
Ni387       O390   1.915   1_565  S
Ni387       O392   1.943       .  S
C388        O398   1.281       .  A
C388       C1332   1.525       .  S
O389       Ni405   1.960       .  S
O389        C395   1.280       .  A
O390        C395   1.270       .  A
C391        C682   1.502       .  S
O392        C394   1.279       .  A
O393       Ni404   1.924       .  S
C394        O400   1.279       .  A
C395        C988   1.508       .  S
H396        O397   0.969       .  S
O397       Ni405   1.925   1_565  S
O397       Ni399   1.933   1_556  S
O397       Ni404   1.919   1_556  S
O398       Ni399   1.978   1_545  S
Ni399       O403   1.943       .  S
Ni399       O401   1.972       .  S
O400       Ni405   1.980   1_565  S
C402        O403   1.281       .  A
C402        C817   1.485       .  S
C407       C2201   1.481       .  S
C407        C408   1.411       .  A
C407        C412   1.401       .  A
C408        C409   1.396       .  A
C408        H413   1.079       .  S
C409       C2211   1.471       .  S
C409        C410   1.391       .  A
C410        C411   1.394       .  A
C410        H414   1.083       .  S
C411       C2191   1.467       .  S
C411        C412   1.394       .  A
C412        H415   1.083       .  S
O416       Ni424   1.901       .  S
O416        C426   1.276       .  A
O417       Ni424   1.955       .  S
O417        C427   1.288       .  A
O418       Ni424   1.962       .  S
O418        C428   1.290       .  A
O419       Ni424   1.911       .  S
O419        C429   1.281       .  A
O420       Ni425   1.881       .  S
O420        C429   1.276       .  A
O421       Ni425   1.930       .  S
O421        C428   1.287       .  A
O422       Ni425   1.941       .  S
O422        C427   1.287       .  A
O423       Ni425   1.898       .  S
O423        C426   1.280       .  A
Ni424      Ni425   2.387       .  S
C426       C2178   1.449       .  S
C429       C2198   1.454       .  S
C430       C2148   1.470       .  S
C430        C431   1.402   1_565  A
C430        C435   1.391       .  A
C431        C432   1.402       .  A
C431        H436   1.082       .  S
C432       C2168   1.478       .  S
C432        C433   1.406       .  A
C433        C434   1.391   1_545  A
C433        H437   1.083       .  S
C434       C2161   1.465       .  S
C434        C435   1.389       .  A
C435        H438   1.082       .  S
O439       Ni447   1.883       .  S
O439        C449   1.275       .  A
O440       Ni447   1.910       .  S
O440        C450   1.283       .  A
O441       Ni447   1.930       .  S
O441        C451   1.284       .  A
O442       Ni447   1.893       .  S
O442        C452   1.278       .  A
O443       Ni448   1.906       .  S
O443        C452   1.278       .  A
O444       Ni448   1.957       .  S
O444        C451   1.286       .  A
O445       Ni448   1.935       .  S
O445        C450   1.284       .  A
O446       Ni448   1.890       .  S
O446        C449   1.278       .  A
Ni447      Ni448   2.390       .  S
C449       C2151   1.449       .  S
C451        C537   1.517       .  S
C452       C2138   1.447       .  S
O453       Ni461   1.903       .  S
O453        C463   1.280       .  A
O454       Ni461   1.939       .  S
O454        C464   1.288       .  A
O455       Ni461   1.925       .  S
O455        C465   1.286       .  A
O456       Ni461   1.891       .  S
O456        C466   1.275       .  A
O457       Ni462   1.897       .  S
O457        C466   1.279       .  A
O458       Ni462   1.953       .  S
O458        C465   1.289       .  A
O459       Ni462   1.953       .  S
O459        C464   1.287       .  A
O460       Ni462   1.897       .  S
O460        C463   1.277       .  A
Ni461      Ni462   2.390       .  S
C463       C2208   1.453       .  S
C466       C2158   1.444       .  S
C467       C2131   1.470       .  S
C467        C468   1.399   1_565  A
C467        C472   1.396       .  A
C468        C469   1.398       .  A
C468        H473   1.083       .  S
C469       C2118   1.472       .  S
C469        C470   1.399       .  A
C470        C471   1.400   1_545  A
C470        H474   1.082       .  S
C471       C2108   1.472       .  S
C471        C472   1.398       .  A
C472        H475   1.085       .  S
C476       C2141   1.468       .  S
C476        C477   1.399       .  A
C476        C481   1.390       .  A
C477        C478   1.393       .  A
C477        H482   1.084       .  S
C478       C2098   1.460       .  S
C478        C479   1.397       .  A
C479        C480   1.393       .  A
C479        H483   1.084       .  S
C480       C2181   1.460       .  S
C480        C481   1.400       .  A
C481        H484   1.083       .  S
O485       Ni493   1.900       .  S
O485        C495   1.278       .  A
O486       Ni493   1.938       .  S
O486        C496   1.285       .  A
O487       Ni493   1.917       .  S
O487        C497   1.284       .  A
O488       Ni493   1.874       .  S
O488        C498   1.274       .  A
O489       Ni494   1.915       .  S
O489        C498   1.281       .  A
O490       Ni494   1.955       .  S
O490        C497   1.288       .  A
O491       Ni494   1.955       .  S
O491        C496   1.291       .  A
O492       Ni494   1.900       .  S
O492        C495   1.279       .  A
Ni493      Ni494   2.391       .  S
C495       C2111   1.450       .  S
C498       C2101   1.445       .  S
O499       Ni507   1.900       .  S
O499        C509   1.278       .  A
O500       Ni507   1.920       .  S
O500        C510   1.285       .  A
O501       Ni507   1.904       .  S
O501        C511   1.281       .  A
O502       Ni507   1.879       .  S
O502        C512   1.273       .  A
O503       Ni508   1.908       .  S
O503        C512   1.282       .  A
O504       Ni508   1.951       .  S
O504        C511   1.287       .  A
O505       Ni508   1.945       .  S
O505        C510   1.287       .  A
O506       Ni508   1.903       .  S
O506        C509   1.279       .  A
Ni507      Ni508   2.392       .  S
C509       C2121   1.453       .  S
C512       C2171   1.451       .  S
O513       Ni521   1.896       .  S
O513        C523   1.278       .  A
O514       Ni521   1.940       .  S
O514        C524   1.283       .  A
O515       Ni521   1.949       .  S
O515        C525   1.286       .  A
O516       Ni521   1.905       .  S
O516        C526   1.280       .  A
O517       Ni522   1.892       .  S
O517        C526   1.277       .  A
O518       Ni522   1.924       .  S
O518        C525   1.284       .  A
O519       Ni522   1.910       .  S
O519        C524   1.281       .  A
O520       Ni522   1.882       .  S
O520        C523   1.276       .  A
Ni521      Ni522   2.390       .  S
C523       C2188   1.447       .  S
C524        C855   1.499       .  S
C526       C2128   1.453       .  S
O527       Ni533   1.922   1_545  S
O527        C548   1.270       .  A
O528       Ni551   1.977       .  S
O528        C537   1.288       .  A
O529       Ni533   1.919   1_545  S
O529       Ni551   1.946   1_545  S
O529       Ni545   1.921       .  S
O529        H552   0.966       .  S
C530        O547   1.280       .  A
C530        O539   1.267       .  A
C530       C1229   1.515       .  S
O531       Ni550   1.925   1_565  S
O531        C537   1.271       .  A
O532       Ni550   1.957       .  S
O532        C534   1.282       .  A
Ni533       O536   1.912       .  S
Ni533       O538   1.948       .  S
C534        O544   1.281       .  A
C534        C910   1.515       .  S
O535       Ni551   1.963       .  S
O535        C541   1.282       .  A
O536        C541   1.267       .  A
O538        C540   1.280       .  A
O539       Ni550   1.912       .  S
C540        O546   1.280       .  A
C541        C816   1.504       .  S
H542        O543   0.966       .  S
O543       Ni551   1.918       .  S
O543       Ni545   1.949   1_565  S
O543       Ni550   1.918   1_565  S
O544       Ni545   1.973       .  S
Ni545       O549   1.972       .  S
Ni545       O547   1.968       .  S
O546       Ni551   1.973       .  S
C548        O549   1.286       .  A
C548       C1375   1.511       .  S
O553       Ni559   1.919       .  S
O553        C574   1.271       .  A
O554       Ni577   1.965       .  S
O554        C563   1.284       .  A
O555       Ni559   1.912   1_554  S
O555       Ni577   1.938       .  S
O555       Ni571   1.912   1_554  S
O555        H578   0.966       .  S
C556        O573   1.281       .  A
C556        O565   1.266       .  A
C556        C641   1.517       .  S
O557       Ni576   1.919   1_554  S
O557        C563   1.269       .  A
O558       Ni576   1.938   1_554  S
O558        C560   1.280       .  A
Ni559       O562   1.917   1_556  S
Ni559       O564   1.955       .  S
C560        O570   1.287       .  A
C560        C774   1.507       .  S
O561       Ni577   1.967       .  S
O561        C567   1.280       .  A
O562        C567   1.273       .  A
C563       C1201   1.502       .  S
O564        C566   1.280       .  A
O565       Ni576   1.909       .  S
C566        O572   1.282       .  A
C567       C1374   1.517       .  S
H568        O569   0.966       .  S
O569       Ni577   1.932   1_556  S
O569       Ni571   1.954       .  S
O569       Ni576   1.916       .  S
O570       Ni571   1.988   1_554  S
Ni571       O575   1.987       .  S
Ni571       O573   1.978       .  S
O572       Ni577   1.987   1_556  S
C574        O575   1.292       .  A
C574        C989   1.518       .  S
C579       C2091   1.449       .  S
C579        C580   1.387       .  A
C579        C584   1.387       .  A
C580        C581   1.386       .  A
C580        H585   1.085       .  S
C581       C2078   1.450       .  S
C581        C582   1.398       .  A
C582        C583   1.398       .  A
C582        H586   1.083       .  S
C583       C2068   1.469       .  S
C583        C584   1.400       .  A
C584        H587   1.083       .  S
C588       C2038   1.461       .  S
C588        C589   1.391       .  A
C588        C593   1.391   1_556  A
C589        C590   1.395       .  A
C589        H594   1.084       .  S
C590       C2058   1.464       .  S
C590        C591   1.399   1_556  A
C591        C592   1.400       .  A
C591        H595   1.084       .  S
C592       C2051   1.462       .  S
C592        C593   1.396       .  A
C593        H596   1.085       .  S
C597       C2021   1.475       .  S
C597        C598   1.400       .  A
C597        C602   1.401       .  A
C598        C599   1.399       .  A
C598        H603   1.083       .  S
C599       C2028   1.470       .  S
C599        C600   1.398       .  A
C600        C601   1.395       .  A
C600        H604   1.084       .  S
C601       C2008   1.478       .  S
C601        C602   1.403       .  A
C602        H605   1.081       .  S
C606       C1998   1.464       .  S
C606        C607   1.395       .  A
C606        C611   1.398       .  A
C607        C608   1.389   1_554  A
C607        H612   1.084       .  S
C608       C1991   1.461       .  S
C608        C609   1.391       .  A
C609        C610   1.400   1_556  A
C609        H613   1.083       .  S
C610       C1978   1.468   1_554  S
C610        C611   1.402       .  A
C611        H614   1.084       .  S
O615       Ni623   1.896       .  S
O615        C625   1.278       .  A
O616       Ni623   1.957       .  S
O616        C626   1.290       .  A
O617       Ni623   1.967       .  S
O617        C627   1.291       .  A
O618       Ni623   1.920       .  S
O618        C628   1.283       .  A
O619       Ni624   1.876       .  S
O619        C628   1.273       .  A
O620       Ni624   1.932       .  S
O620        C627   1.288       .  A
O621       Ni624   1.959       .  S
O621        C626   1.291       .  A
O622       Ni624   1.912       .  S
O622        C625   1.281       .  A
Ni623      Ni624   2.386       .  S
C625       C2018   1.456       .  S
C628       C1981   1.456       .  S
O629       Ni637   1.890       .  S
O629        C639   1.277       .  A
O630       Ni637   1.943       .  S
O630        C640   1.287       .  A
O631       Ni637   1.966       .  S
O631        C641   1.292       .  A
O632       Ni637   1.911       .  S
O632        C642   1.281       .  A
O633       Ni638   1.889       .  S
O633        C642   1.276       .  A
O634       Ni638   1.926       .  S
O634        C641   1.285       .  A
O635       Ni638   1.918       .  S
O635        C640   1.285       .  A
O636       Ni638   1.891       .  S
O636        C639   1.277       .  A
Ni637      Ni638   2.392       .  S
C639       C2041   1.446       .  S
C640        C829   1.509       .  S
C642       C2011   1.453       .  S
O643       Ni651   1.901       .  S
O643        C653   1.277       .  A
O644       Ni651   1.956       .  S
O644        C654   1.293       .  A
O645       Ni651   1.962       .  S
O645        C655   1.290       .  A
O646       Ni651   1.898       .  S
O646        C656   1.278       .  A
O647       Ni652   1.900       .  S
O647        C656   1.280       .  A
O648       Ni652   1.936       .  S
O648        C655   1.287       .  A
O649       Ni652   1.938       .  S
O649        C654   1.284       .  A
O650       Ni652   1.892       .  S
O650        C653   1.276       .  A
Ni651      Ni652   2.390       .  S
C653       C2081   1.438       .  S
C656       C2031   1.458       .  S
O657       Ni665   1.911       .  S
O657        C667   1.283       .  A
O658       Ni665   1.955       .  S
O658        C668   1.290       .  A
O659       Ni665   1.921       .  S
O659        C669   1.284       .  A
O660       Ni665   1.873       .  S
O660        C670   1.272       .  A
O661       Ni666   1.924       .  S
O661        C670   1.284       .  A
O662       Ni666   1.966       .  S
O662        C669   1.292       .  A
O663       Ni666   1.946       .  S
O663        C668   1.288       .  A
O664       Ni666   1.891       .  S
O664        C667   1.275       .  A
Ni665      Ni666   2.384       .  S
C667       C2001   1.459       .  S
C670       C2048   1.453       .  S
O671       Ni679   1.886       .  S
O671        C681   1.275       .  A
O672       Ni679   1.938       .  S
O672        C682   1.286       .  A
O673       Ni679   1.950       .  S
O673        C683   1.290       .  A
O674       Ni679   1.898       .  S
O674        C684   1.278       .  A
O675       Ni680   1.897       .  S
O675        C684   1.276       .  A
O676       Ni680   1.929       .  S
O676        C683   1.283       .  A
O677       Ni680   1.918       .  S
O677        C682   1.284       .  A
O678       Ni680   1.898       .  S
O678        C681   1.280       .  A
Ni679      Ni680   2.394       .  S
C681       C2071   1.445       .  S
C684       C2061   1.441       .  S
O685       Ni693   1.895       .  S
O685        C695   1.278       .  A
O686       Ni693   1.915       .  S
O686        C696   1.287       .  A
O687       Ni693   1.918       .  S
O687        C697   1.278       .  A
O688       Ni693   1.885       .  S
O688        C698   1.276       .  A
O689       Ni694   1.885       .  S
O689        C698   1.276       .  A
O690       Ni694   1.922       .  S
O690        C697   1.287       .  A
O691       Ni694   1.933       .  S
O691        C696   1.282       .  A
O692       Ni694   1.893       .  S
O692        C695   1.278       .  A
Ni693      Ni694   2.395       .  S
C695       C1988   1.448       .  S
C696       C1252   1.493       .  S
C698       C2088   1.433       .  S
C699       C1968   1.451       .  S
C699        C700   1.387       .  A
C699        C704   1.394       .  A
C700        C701   1.390       .  A
C700        H705   1.086       .  S
C701       C1958   1.459       .  S
C701        C702   1.397       .  A
C702        C703   1.401       .  A
C702        H706   1.085       .  S
C703       C1948   1.464       .  S
C703        C704   1.398       .  A
C704        H707   1.085       .  S
O708       Ni716   1.886       .  S
O708        C718   1.274       .  A
O709       Ni716   1.964       .  S
O709        C719   1.292       .  A
O710       Ni716   1.984       .  S
O710        C720   1.296       .  A
O711       Ni716   1.915       .  S
O711        C721   1.284       .  A
O712       Ni717   1.884       .  S
O712        C721   1.274       .  A
O713       Ni717   1.941       .  S
O713        C720   1.291       .  A
O714       Ni717   1.972       .  S
O714        C719   1.295       .  A
O715       Ni717   1.913       .  S
O715        C718   1.281       .  A
Ni716      Ni717   2.382       .  S
C718       C1951   1.446       .  S
C721       C1941   1.456       .  S
C722       C1918   1.466       .  S
C722        C723   1.393   1_554  A
C722        C727   1.396       .  A
C723        C724   1.397       .  A
C723        H728   1.083       .  S
C724       C1931   1.470       .  S
C724        C725   1.401       .  A
C725        C726   1.400   1_556  A
C725        H729   1.083       .  S
C726       C1908   1.474       .  S
C726        C727   1.399       .  A
C727        H730   1.083       .  S
C731       C1881   1.457       .  S
C731        C732   1.394   1_554  A
C731        C736   1.390       .  A
C732        C733   1.401       .  A
C732        H737   1.082       .  S
C733       C1901   1.479       .  S
C733        C734   1.406       .  A
C734        C735   1.398   1_556  A
C734        H738   1.083       .  S
C735       C1888   1.463       .  S
C735        C736   1.393       .  A
C736        H739   1.085       .  S
C740       C1938   1.473       .  S
C740        C741   1.401       .  A
C740        C745   1.401       .  A
C741        C742   1.400       .  A
C741        H746   1.083       .  S
C742       C1868   1.465       .  S
C742        C743   1.396       .  A
C743        C744   1.392       .  A
C743        H747   1.084       .  S
C744       C1861   1.464       .  S
C744        C745   1.391       .  A
C745        H748   1.083       .  S
O749       Ni757   1.904       .  S
O749        C759   1.279       .  A
O750       Ni757   1.927       .  S
O750        C760   1.281       .  A
O751       Ni757   1.913       .  S
O751        C761   1.283       .  A
O752       Ni757   1.884       .  S
O752        C762   1.275       .  A
O753       Ni758   1.905       .  S
O753        C762   1.281       .  A
O754       Ni758   1.944       .  S
O754        C761   1.283       .  A
O755       Ni758   1.926       .  S
O755        C760   1.289       .  A
O756       Ni758   1.885       .  S
O756        C759   1.276       .  A
Ni757      Ni758   2.392       .  S
C759       C1858   1.444       .  S
C762       C1878   1.445       .  S
O763       Ni771   1.907       .  S
O763        C773   1.280       .  A
O764       Ni771   1.938       .  S
O764        C774   1.284       .  A
O765       Ni771   1.916       .  S
O765        C775   1.283       .  A
O766       Ni771   1.897       .  S
O766        C776   1.277       .  A
O767       Ni772   1.891       .  S
O767        C776   1.278       .  A
O768       Ni772   1.939       .  S
O768        C775   1.285       .  A
O769       Ni772   1.936       .  S
O769        C774   1.287       .  A
O770       Ni772   1.891       .  S
O770        C773   1.277       .  A
Ni771      Ni772   2.392       .  S
C773       C1871   1.451       .  S
C776       C1911   1.446       .  S
O777       Ni785   1.893       .  S
O777        C787   1.277       .  A
O778       Ni785   1.955       .  S
O778        C788   1.290       .  A
O779       Ni785   1.952       .  S
O779        C789   1.290       .  A
O780       Ni785   1.899       .  S
O780        C790   1.280       .  A
O781       Ni786   1.897       .  S
O781        C790   1.277       .  A
O782       Ni786   1.960       .  S
O782        C789   1.290       .  A
O783       Ni786   1.953       .  S
O783        C788   1.291       .  A
O784       Ni786   1.905       .  S
O784        C787   1.280       .  A
Ni785      Ni786   2.389       .  S
C787       C1928   1.451       .  S
C789        C826   1.541       .  S
C790       C1898   1.454       .  S
O791       Ni799   1.881       .  S
O791        C801   1.275       .  A
O792       Ni799   1.913       .  S
O792        C802   1.278       .  A
O793       Ni799   1.919       .  S
O793        C803   1.285       .  A
O794       Ni799   1.893       .  S
O794        C804   1.279       .  A
O795       Ni800   1.896       .  S
O795        C804   1.277       .  A
O796       Ni800   1.921       .  S
O796        C803   1.281       .  A
O797       Ni800   1.918       .  S
O797        C802   1.285       .  A
O798       Ni800   1.900       .  S
O798        C801   1.279       .  A
Ni799      Ni800   2.397       .  S
C801       C1961   1.444       .  S
C804       C1921   1.448       .  S
O805       Ni813   1.910       .  S
O805        C815   1.281       .  A
O806       Ni813   1.946       .  S
O806        C816   1.284       .  A
O807       Ni813   1.915       .  S
O807        C817   1.279       .  A
O808       Ni813   1.882       .  S
O808        C818   1.275       .  A
O809       Ni814   1.894       .  S
O809        C818   1.276       .  A
O810       Ni814   1.923       .  S
O810        C817   1.286       .  A
O811       Ni814   1.925       .  S
O811        C816   1.283       .  A
O812       Ni814   1.890       .  S
O812        C815   1.276       .  A
Ni813      Ni814   2.392       .  S
C815       C1891   1.454       .  S
C818       C1971   1.434       .  S
O819       Ni825   1.893       .  S
O819        C840   1.261       .  A
O820       Ni843   1.966       .  S
O820        C829   1.283       .  A
O821       Ni825   1.922       .  S
O821       Ni843   1.941       .  S
O821       Ni837   1.945       .  S
O821        H844   0.966       .  S
C822        O839   1.292       .  A
C822        O831   1.280       .  A
O823       Ni842   1.913       .  S
O823        C829   1.272       .  A
O824       Ni842   1.972       .  S
O824        C826   1.281       .  A
Ni825       O828   1.915       .  S
Ni825       O830   1.930       .  S
C826        O836   1.278       .  A
O827       Ni843   2.001       .  S
O827        C833   1.300       .  A
O828        C833   1.272       .  A
O830        C832   1.271       .  A
O831       Ni842   1.941       .  S
C832        O838   1.271       .  A
C832       C1186   1.498       .  S
C833        C947   1.517       .  S
H834        O835   0.967       .  S
O835       Ni843   1.935       .  S
O835       Ni837   1.923       .  S
O835       Ni842   1.915       .  S
O836       Ni837   1.982       .  S
Ni837       O841   1.960       .  S
Ni837       O839   1.986       .  S
O838       Ni843   1.950       .  S
C840        O841   1.275       .  A
C840       C1081   1.494       .  S
O845       Ni851   1.896       .  S
O845        C866   1.267       .  A
O846       Ni869   1.961       .  S
O846        C855   1.274       .  A
O847       Ni851   1.920   1_455  S
O847       Ni869   1.927   1_545  S
O847       Ni863   1.941   1_455  S
O847        H870   0.966       .  S
C848        O865   1.296       .  A
C848        O857   1.274       .  A
C848       C1228   1.514       .  S
O849       Ni868   1.892   1_565  S
O849        C855   1.264       .  A
O850       Ni868   1.942       .  S
O850        C852   1.274       .  A
Ni851       O854   1.932   1_645  S
Ni851       O856   1.957   1_545  S
C852        O862   1.275       .  A
C852       C1310   1.512       .  S
O853       Ni869   1.984       .  S
O853        C859   1.297       .  A
O854        C859   1.277       .  A
O856        C858   1.276       .  A
O857       Ni868   1.923   1_655  S
C858        O864   1.271       .  A
C859       C1095   1.522       .  S
H860        O861   0.966       .  S
O861       Ni869   1.944   1_655  S
O861       Ni863   1.934   1_565  S
O861       Ni868   1.922   1_665  S
O862       Ni863   1.966   1_455  S
Ni863       O867   1.977       .  S
Ni863       O865   1.983       .  S
O864       Ni869   1.962   1_655  S
C866        O867   1.280       .  A
C866        C974   1.511       .  S
C871       C1828   1.468       .  S
C871        C872   1.398   1_545  A
C871        C876   1.395       .  A
C872        C873   1.400       .  A
C872        H877   1.084       .  S
C873       C1848   1.474       .  S
C873        C874   1.401       .  A
C874        C875   1.398   1_565  A
C874        H878   1.083       .  S
C875       C1841   1.466       .  S
C875        C876   1.394       .  A
C876        H879   1.084       .  S
C880       C1821   1.464       .  S
C880        C881   1.393   1_545  A
C880        C885   1.390       .  A
C881        C882   1.394       .  A
C881        H886   1.083       .  S
C882       C1808   1.465       .  S
C882        C883   1.399       .  A
C883        C884   1.398   1_565  A
C883        H887   1.082       .  S
C884       C1798   1.465       .  S
C884        C885   1.400       .  A
C885        H888   1.084       .  S
C889       C1771   1.455       .  S
C889        C890   1.383       .  A
C889        C894   1.390       .  A
C890        C891   1.392       .  A
C890        H895   1.085       .  S
C891       C1788   1.463       .  S
C891        C892   1.400       .  A
C892        C893   1.410       .  A
C892        H896   1.083       .  S
C893       C1778   1.475       .  S
C893        C894   1.400       .  A
C894        H897   1.083       .  S
O898       Ni906   1.892       .  S
O898        C908   1.275       .  A
O899       Ni906   1.936       .  S
O899        C909   1.286       .  A
O900       Ni906   1.947       .  S
O900        C910   1.289       .  A
O901       Ni906   1.905       .  S
O901        C911   1.281       .  A
O902       Ni907   1.889       .  S
O902        C911   1.276       .  A
O903       Ni907   1.936       .  S
O903        C910   1.286       .  A
O904       Ni907   1.932       .  S
O904        C909   1.286       .  A
O905       Ni907   1.901       .  S
O905        C908   1.281       .  A
Ni906      Ni907   2.392       .  S
C908       C1801   1.452       .  S
C911       C1781   1.451       .  S
O912       Ni920   1.904       .  S
O912        C922   1.279       .  A
O913       Ni920   1.944       .  S
O913        C923   1.285       .  A
O914       Ni920   1.925       .  S
O914        C924   1.289       .  A
O915       Ni920   1.897       .  S
O915        C925   1.278       .  A
O916       Ni921   1.882       .  S
O916        C925   1.276       .  A
O917       Ni921   1.944       .  S
O917        C924   1.285       .  A
O918       Ni921   1.956       .  S
O918        C923   1.294       .  A
O919       Ni921   1.894       .  S
O919        C922   1.279       .  A
Ni920      Ni921   2.392       .  S
C922       C1831   1.452       .  S
C925       C1768   1.444       .  S
C926       C1738   1.452       .  S
C926        C927   1.393       .  A
C926        C931   1.392       .  A
C927        C928   1.395       .  A
C927        H932   1.086       .  S
C928       C1758   1.470       .  S
C928        C929   1.395       .  A
C929        C930   1.405       .  A
C929        H933   1.084       .  S
C930       C1748   1.466       .  S
C930        C931   1.397       .  A
C931        H934   1.084       .  S
O935       Ni943   1.912       .  S
O935        C945   1.281       .  A
O936       Ni943   1.955       .  S
O936        C946   1.288       .  A
O937       Ni943   1.931       .  S
O937        C947   1.289       .  A
O938       Ni943   1.894       .  S
O938        C948   1.276       .  A
O939       Ni944   1.907       .  S
O939        C948   1.281       .  A
O940       Ni944   1.959       .  S
O940        C947   1.288       .  A
O941       Ni944   1.931       .  S
O941        C946   1.289       .  A
O942       Ni944   1.881       .  S
O942        C945   1.274       .  A
Ni943      Ni944   2.385       .  S
C945       C1741   1.443       .  S
C948       C1791   1.453       .  S
O949       Ni957   1.900       .  S
O949        C959   1.279       .  A
O950       Ni957   1.931       .  S
O950        C960   1.285       .  A
O951       Ni957   1.920       .  S
O951        C961   1.286       .  A
O952       Ni957   1.883       .  S
O952        C962   1.274       .  A
O953       Ni958   1.907       .  S
O953        C962   1.281       .  A
O954       Ni958   1.947       .  S
O954        C961   1.287       .  A
O955       Ni958   1.951       .  S
O955        C960   1.289       .  A
O956       Ni958   1.898       .  S
O956        C959   1.278       .  A
Ni957      Ni958   2.393       .  S
C959       C1851   1.451       .  S
C962       C1811   1.444       .  S
O963       Ni971   1.895       .  S
O963        C973   1.276       .  A
O964       Ni971   1.919       .  S
O964        C974   1.284       .  A
O965       Ni971   1.921       .  S
O965        C975   1.284       .  A
O966       Ni971   1.890       .  S
O966        C976   1.277       .  A
O967       Ni972   1.896       .  S
O967        C976   1.277       .  A
O968       Ni972   1.932       .  S
O968        C975   1.283       .  A
O969       Ni972   1.958       .  S
O969        C974   1.288       .  A
O970       Ni972   1.915       .  S
O970        C973   1.283       .  A
Ni971      Ni972   2.390       .  S
C973       C1761   1.456       .  S
C975       C1241   1.499       .  S
C976       C1818   1.443       .  S
O977       Ni985   1.901       .  S
O977        C987   1.276       .  A
O978       Ni985   1.949       .  S
O978        C988   1.289       .  A
O979       Ni985   1.959       .  S
O979        C989   1.287       .  A
O980       Ni985   1.903       .  S
O980        C990   1.279       .  A
O981       Ni986   1.895       .  S
O981        C990   1.278       .  A
O982       Ni986   1.923       .  S
O982        C989   1.286       .  A
O983       Ni986   1.925       .  S
O983        C988   1.284       .  A
O984       Ni986   1.891       .  S
O984        C987   1.277       .  A
Ni985      Ni986   2.389       .  S
C987       C1751   1.446       .  S
C990       C1838   1.455       .  S
C991       C1728   1.456       .  S
C991        C992   1.395   1_455  A
C991        C996   1.390       .  A
C992        C993   1.398       .  A
C992        H997   1.084       .  S
C993       C1718   1.477       .  S
C993        C994   1.407       .  A
C994        C995   1.396   1_655  A
C994        H998   1.081       .  S
C995       C1711   1.470       .  S
C995        C996   1.396       .  A
C996        H999   1.084       .  S
O1000     Ni1008   1.887       .  S
O1000      C1010   1.277       .  A
O1001     Ni1008   1.923       .  S
O1001      C1011   1.286       .  A
O1002     Ni1008   1.942       .  S
O1002      C1012   1.284       .  A
O1003     Ni1008   1.904       .  S
O1003      C1013   1.278       .  A
O1004     Ni1009   1.890       .  S
O1004      C1013   1.278       .  A
O1005     Ni1009   1.930       .  S
O1005      C1012   1.288       .  A
O1006     Ni1009   1.939       .  S
O1006      C1011   1.283       .  A
O1007     Ni1009   1.901       .  S
O1007      C1010   1.279       .  A
Ni1008    Ni1009   2.389       .  S
C1010      C1698   1.452       .  S
C1013      C1708   1.451       .  S
C1014      C1668   1.485       .  S
C1014      C1015   1.399       .  A
C1014      C1019   1.408       .  A
C1015      C1016   1.399       .  A
C1015      H1020   1.082       .  S
C1016      C1681   1.466       .  S
C1016      C1017   1.393       .  A
C1017      C1018   1.397       .  A
C1017      H1021   1.084       .  S
C1018      C1688   1.470       .  S
C1018      C1019   1.394       .  A
C1019      H1022   1.082       .  S
C1023      C1648   1.466       .  S
C1023      C1024   1.396       .  A
C1023      C1028   1.397       .  A
C1024      C1025   1.398       .  A
C1024      H1029   1.084       .  S
C1025      C1661   1.464       .  S
C1025      C1026   1.398       .  A
C1026      C1027   1.397       .  A
C1026      H1030   1.084       .  S
C1027      C1701   1.469       .  S
C1027      C1028   1.394       .  A
C1028      H1031   1.083       .  S
O1032     Ni1040   1.892       .  S
O1032      C1042   1.277       .  A
O1033     Ni1040   1.934       .  S
O1033      C1043   1.290       .  A
O1034     Ni1040   1.932       .  S
O1034      C1044   1.281       .  A
O1035     Ni1040   1.896       .  S
O1035      C1045   1.276       .  A
O1036     Ni1041   1.897       .  S
O1036      C1045   1.279       .  A
O1037     Ni1041   1.929       .  S
O1037      C1044   1.290       .  A
O1038     Ni1041   1.943       .  S
O1038      C1043   1.282       .  A
O1039     Ni1041   1.903       .  S
O1039      C1042   1.280       .  A
Ni1040    Ni1041   2.391       .  S
C1042      C1671   1.454       .  S
C1045      C1651   1.446       .  S
C1046      C1628   1.477   1_655  S
C1046      C1047   1.402   1_655  A
C1046      C1051   1.407       .  A
C1047      C1048   1.399   1_455  A
C1047      H1052   1.083       .  S
C1048      C1641   1.462   1_655  S
C1048      C1049   1.388       .  A
C1049      C1050   1.391       .  A
C1049      H1053   1.085       .  S
C1050      C1618   1.471       .  S
C1050      C1051   1.398       .  A
C1051      H1054   1.084       .  S
O1055     Ni1063   1.894       .  S
O1055      C1065   1.277       .  A
O1056     Ni1063   1.955       .  S
O1056      C1066   1.292       .  A
O1057     Ni1063   1.962       .  S
O1057      C1067   1.290       .  A
O1058     Ni1063   1.914       .  S
O1058      C1068   1.280       .  A
O1059     Ni1064   1.896       .  S
O1059      C1068   1.278       .  A
O1060     Ni1064   1.920       .  S
O1060      C1067   1.286       .  A
O1061     Ni1064   1.930       .  S
O1061      C1066   1.282       .  A
O1062     Ni1064   1.895       .  S
O1062      C1065   1.278       .  A
Ni1063    Ni1064   2.390       .  S
C1065      C1658   1.447       .  S
C1066      C1244   1.514       .  S
C1068      C1631   1.458       .  S
O1069     Ni1077   1.908       .  S
O1069      C1079   1.281       .  A
O1070     Ni1077   1.947       .  S
O1070      C1080   1.286       .  A
O1071     Ni1077   1.942       .  S
O1071      C1081   1.286       .  A
O1072     Ni1077   1.903       .  S
O1072      C1082   1.278       .  A
O1073     Ni1078   1.895       .  S
O1073      C1082   1.278       .  A
O1074     Ni1078   1.917       .  S
O1074      C1081   1.283       .  A
O1075     Ni1078   1.896       .  S
O1075      C1080   1.279       .  A
O1076     Ni1078   1.881       .  S
O1076      C1079   1.275       .  A
Ni1077    Ni1078   2.391       .  S
C1079      C1621   1.451       .  S
C1082      C1721   1.450       .  S
O1083     Ni1091   1.892       .  S
O1083      C1093   1.278       .  A
O1084     Ni1091   1.941       .  S
O1084      C1094   1.287       .  A
O1085     Ni1091   1.929       .  S
O1085      C1095   1.286       .  A
O1086     Ni1091   1.881       .  S
O1086      C1096   1.276       .  A
O1087     Ni1092   1.917       .  S
O1087      C1096   1.281       .  A
O1088     Ni1092   1.958       .  S
O1088      C1095   1.291       .  A
O1089     Ni1092   1.958       .  S
O1089      C1094   1.291       .  A
O1090     Ni1092   1.897       .  S
O1090      C1093   1.277       .  A
Ni1091    Ni1092   2.389       .  S
C1093      C1731   1.447       .  S
C1096      C1691   1.452       .  S
O1097     Ni1105   1.878       .  S
O1097      C1107   1.273       .  A
O1098     Ni1105   1.922       .  S
O1098      C1108   1.284       .  A
O1099     Ni1105   1.947       .  S
O1099      C1109   1.285       .  A
O1100     Ni1105   1.910       .  S
O1100      C1110   1.282       .  A
O1101     Ni1106   1.885       .  S
O1101      C1110   1.274       .  A
O1102     Ni1106   1.911       .  S
O1102      C1109   1.283       .  A
O1103     Ni1106   1.935       .  S
O1103      C1108   1.283       .  A
O1104     Ni1106   1.907       .  S
O1104      C1107   1.279       .  A
Ni1105    Ni1106   2.390       .  S
C1107      C1638   1.439       .  S
C1110      C1678   1.454       .  S
C1111      C1598   1.457       .  S
C1111      C1112   1.389       .  A
C1111      C1116   1.395       .  A
C1112      C1113   1.405       .  A
C1112      H1117   1.084       .  S
C1113      C1611   1.473       .  S
C1113      C1114   1.401       .  A
C1114      C1115   1.402       .  A
C1114      H1118   1.085       .  S
C1115      C1591   1.462       .  S
C1115      C1116   1.390       .  A
C1116      H1119   1.085       .  S
O1120     Ni1128   1.920       .  S
O1120      C1130   1.282       .  A
O1121     Ni1128   1.957       .  S
O1121      C1131   1.288       .  A
O1122     Ni1128   1.933       .  S
O1122      C1132   1.290       .  A
O1123     Ni1128   1.893       .  S
O1123      C1133   1.274       .  A
O1124     Ni1129   1.901       .  S
O1124      C1133   1.281       .  A
O1125     Ni1129   1.944       .  S
O1125      C1132   1.283       .  A
O1126     Ni1129   1.930       .  S
O1126      C1131   1.287       .  A
O1127     Ni1129   1.883       .  S
O1127      C1130   1.275       .  A
Ni1128    Ni1129   2.392       .  S
C1130      C1578   1.447       .  S
C1133      C1601   1.445       .  S
C1134      C1581   1.479       .  S
C1134      C1135   1.392       .  A
C1134      C1139   1.410       .  A
C1135      C1136   1.391       .  A
C1135      H1140   1.084       .  S
C1136      C1568   1.459       .  S
C1136      C1137   1.393       .  A
C1137      C1138   1.400       .  A
C1137      H1141   1.084       .  S
C1138      C1558   1.474       .  S
C1138      C1139   1.400       .  A
C1139      H1142   1.079       .  S
C1143      C1528   1.469       .  S
C1143      C1144   1.399   1_655  A
C1143      C1148   1.403       .  A
C1144      C1145   1.390       .  A
C1144      H1149   1.084       .  S
C1145      C1548   1.460       .  S
C1145      C1146   1.392       .  A
C1146      C1147   1.394   1_455  A
C1146      H1150   1.084       .  S
C1147      C1541   1.465       .  S
C1147      C1148   1.402       .  A
C1148      H1151   1.084       .  S
C1152      C1518   1.485       .  S
C1152      C1153   1.407       .  A
C1152      C1157   1.400       .  A
C1153      C1154   1.392   1_455  A
C1153      H1158   1.081       .  S
C1154      C1508   1.461       .  S
C1154      C1155   1.389       .  A
C1155      C1156   1.391       .  A
C1155      H1159   1.086       .  S
C1156      C1498   1.453       .  S
C1156      C1157   1.396   1_655  A
C1157      H1160   1.081       .  S
O1161     Ni1169   1.898       .  S
O1161      C1171   1.277       .  A
O1162     Ni1169   1.951       .  S
O1162      C1172   1.292       .  A
O1163     Ni1169   1.950       .  S
O1163      C1173   1.288       .  A
O1164     Ni1169   1.896       .  S
O1164      C1174   1.278       .  A
O1165     Ni1170   1.892       .  S
O1165      C1174   1.278       .  A
O1166     Ni1170   1.931       .  S
O1166      C1173   1.288       .  A
O1167     Ni1170   1.937       .  S
O1167      C1172   1.285       .  A
O1168     Ni1170   1.891       .  S
O1168      C1171   1.277       .  A
Ni1169    Ni1170   2.392       .  S
C1171      C1551   1.444       .  S
C1174      C1521   1.452       .  S
O1175     Ni1183   1.893       .  S
O1175      C1185   1.277       .  A
O1176     Ni1183   1.925       .  S
O1176      C1186   1.283       .  A
O1177     Ni1183   1.928       .  S
O1177      C1187   1.285       .  A
O1178     Ni1183   1.892       .  S
O1178      C1188   1.277       .  A
O1179     Ni1184   1.915       .  S
O1179      C1188   1.280       .  A
O1180     Ni1184   1.941       .  S
O1180      C1187   1.286       .  A
O1181     Ni1184   1.932       .  S
O1181      C1186   1.282       .  A
O1182     Ni1184   1.889       .  S
O1182      C1185   1.276       .  A
Ni1183    Ni1184   2.391       .  S
C1185      C1501   1.443       .  S
C1187      C1245   1.505       .  S
C1188      C1561   1.454       .  S
O1189     Ni1197   1.916       .  S
O1189      C1199   1.283       .  A
O1190     Ni1197   1.953       .  S
O1190      C1200   1.286       .  A
O1191     Ni1197   1.917       .  S
O1191      C1201   1.284       .  A
O1192     Ni1197   1.888       .  S
O1192      C1202   1.276       .  A
O1193     Ni1198   1.911       .  S
O1193      C1202   1.282       .  A
O1194     Ni1198   1.947       .  S
O1194      C1201   1.286       .  A
O1195     Ni1198   1.921       .  S
O1195      C1200   1.285       .  A
O1196     Ni1198   1.888       .  S
O1196      C1199   1.274       .  A
Ni1197    Ni1198   2.383       .  S
C1199      C1608   1.451       .  S
C1202      C1538   1.459       .  S
O1203     Ni1211   1.884       .  S
O1203      C1213   1.273       .  A
O1204     Ni1211   1.940       .  S
O1204      C1214   1.285       .  A
O1205     Ni1211   1.960       .  S
O1205      C1215   1.293       .  A
O1206     Ni1211   1.922       .  S
O1206      C1216   1.285       .  A
O1207     Ni1212   1.883       .  S
O1207      C1216   1.274       .  A
O1208     Ni1212   1.935       .  S
O1208      C1215   1.283       .  A
O1209     Ni1212   1.945       .  S
O1209      C1214   1.290       .  A
O1210     Ni1212   1.905       .  S
O1210      C1213   1.281       .  A
Ni1211    Ni1212   2.388       .  S
C1213      C1571   1.443       .  S
C1216      C1531   1.458       .  S
O1217     Ni1225   1.885       .  S
O1217      C1227   1.278       .  A
O1218     Ni1225   1.931       .  S
O1218      C1228   1.288       .  A
O1219     Ni1225   1.951       .  S
O1219      C1229   1.285       .  A
O1220     Ni1225   1.902       .  S
O1220      C1230   1.279       .  A
O1221     Ni1226   1.886       .  S
O1221      C1230   1.275       .  A
O1222     Ni1226   1.936       .  S
O1222      C1229   1.288       .  A
O1223     Ni1226   1.950       .  S
O1223      C1228   1.288       .  A
O1224     Ni1226   1.915       .  S
O1224      C1227   1.280       .  A
Ni1225    Ni1226   2.387       .  S
C1227      C1588   1.463       .  S
C1230      C1511   1.444       .  S
O1231     Ni1237   1.898   1_455  S
O1231      C1252   1.266       .  A
O1232     Ni1255   1.954       .  S
O1232      C1241   1.281       .  A
O1233     Ni1237   1.922       .  S
O1233     Ni1255   1.944       .  S
O1233     Ni1249   1.933   1_655  S
O1233      H1256   0.967       .  S
C1234      O1251   1.284       .  A
C1234      O1243   1.269       .  A
C1234      C1347   1.501       .  S
O1235     Ni1254   1.918       .  S
O1235      C1241   1.273       .  A
O1236     Ni1254   1.958       .  S
O1236      C1238   1.281       .  A
Ni1237     O1240   1.904       .  S
Ni1237     O1242   1.949   1_655  S
C1238      O1248   1.281       .  A
O1239     Ni1255   1.955       .  S
O1239      C1245   1.274       .  A
O1240      C1245   1.262       .  A
O1242      C1244   1.281       .  A
O1243     Ni1254   1.902   1_455  S
C1244      O1250   1.284       .  A
H1246      O1247   0.967       .  S
O1247     Ni1255   1.896   1_455  S
O1247     Ni1249   1.929       .  S
O1247     Ni1254   1.914   1_455  S
O1248     Ni1249   1.985   1_655  S
Ni1249     O1253   1.964       .  S
Ni1249     O1251   1.963       .  S
O1250     Ni1255   1.985   1_455  S
C1252      O1253   1.286       .  A
C1257      C1488   1.461       .  S
C1257      C1258   1.394   1_554  A
C1257      C1262   1.386       .  A
C1258      C1259   1.393   1_655  A
C1258      H1263   1.083       .  S
C1259      C1481   1.458       .  S
C1259      C1260   1.400       .  A
C1260      C1261   1.392   1_556  A
C1260      H1264   1.084       .  S
C1261      C1471   1.457       .  S
C1261      C1262   1.401   1_455  A
C1262      H1265   1.085       .  S
O1266     Ni1274   1.905       .  S
O1266      C1276   1.283       .  A
O1267     Ni1274   1.969       .  S
O1267      C1277   1.294       .  A
O1268     Ni1274   1.960       .  S
O1268      C1278   1.289       .  A
O1269     Ni1274   1.879       .  S
O1269      C1279   1.274       .  A
O1270     Ni1275   1.919       .  S
O1270      C1279   1.283       .  A
O1271     Ni1275   1.986       .  S
O1271      C1278   1.299       .  A
O1272     Ni1275   1.956       .  S
O1272      C1277   1.289       .  A
O1273     Ni1275   1.885       .  S
O1273      C1276   1.272       .  A
Ni1274    Ni1275   2.382       .  S
C1276      C1468   1.444       .  S
C1279      C1461   1.455       .  S
C1280      C1451   1.478       .  S
C1280      C1281   1.401   1_455  A
C1280      C1285   1.406       .  A
C1281      C1282   1.392   1_565  A
C1281      H1286   1.084       .  S
C1282      C1441   1.458       .  S
C1282      C1283   1.388       .  A
C1283      C1284   1.396   1_545  A
C1283      H1287   1.085       .  S
C1284      C1428   1.474   1_665  S
C1284      C1285   1.404   1_655  A
C1285      H1288   1.080       .  S
C1289      C1418   1.452       .  S
C1289      C1290   1.389       .  A
C1289      C1294   1.391       .  A
C1290      C1291   1.394       .  A
C1290      H1295   1.084       .  S
C1291      C1458   1.461       .  S
C1291      C1292   1.399       .  A
C1292      C1293   1.399       .  A
C1292      H1296   1.084       .  S
C1293      C1408   1.463       .  S
C1293      C1294   1.397       .  A
C1294      H1297   1.084       .  S
O1298     Ni1306   1.899       .  S
O1298      C1308   1.277       .  A
O1299     Ni1306   1.942       .  S
O1299      C1309   1.286       .  A
O1300     Ni1306   1.944       .  S
O1300      C1310   1.290       .  A
O1301     Ni1306   1.903       .  S
O1301      C1311   1.280       .  A
O1302     Ni1307   1.892       .  S
O1302      C1311   1.276       .  A
O1303     Ni1307   1.935       .  S
O1303      C1310   1.283       .  A
O1304     Ni1307   1.935       .  S
O1304      C1309   1.287       .  A
O1305     Ni1307   1.903       .  S
O1305      C1308   1.280       .  A
Ni1306    Ni1307   2.390       .  S
C1308      C1431   1.454       .  S
C1311      C1411   1.453       .  S
C1312      C1401   1.447       .  S
C1312      C1313   1.395   1_546  A
C1312      C1317   1.391   1_556  A
C1313      C1314   1.391       .  A
C1313      H1318   1.085   1_554  S
C1314      C1388   1.439       .  S
C1314      C1315   1.386       .  A
C1315      C1316   1.382   1_565  A
C1315      H1319   1.085       .  S
C1316      C1381   1.437       .  S
C1316      C1317   1.389       .  A
C1317      H1320   1.084   1_554  S
O1321     Ni1329   1.900       .  S
O1321      C1331   1.279       .  A
O1322     Ni1329   1.955       .  S
O1322      C1332   1.290       .  A
O1323     Ni1329   1.938       .  S
O1323      C1333   1.285       .  A
O1324     Ni1329   1.890       .  S
O1324      C1334   1.276       .  A
O1325     Ni1330   1.870       .  S
O1325      C1334   1.274       .  A
O1326     Ni1330   1.923       .  S
O1326      C1333   1.288       .  A
O1327     Ni1330   1.939       .  S
O1327      C1332   1.286       .  A
O1328     Ni1330   1.892       .  S
O1328      C1331   1.276       .  A
Ni1329    Ni1330   2.395       .  S
C1331      C1421   1.442       .  S
C1334      C1378   1.427       .  S
O1335     Ni1343   1.881       .  S
O1335      C1345   1.275       .  A
O1336     Ni1343   1.916       .  S
O1336      C1346   1.286       .  A
O1337     Ni1343   1.932       .  S
O1337      C1347   1.283       .  A
O1338     Ni1343   1.901       .  S
O1338      C1348   1.279       .  A
O1339     Ni1344   1.871       .  S
O1339      C1348   1.274       .  A
O1340     Ni1344   1.915       .  S
O1340      C1347   1.286       .  A
O1341     Ni1344   1.941       .  S
O1341      C1346   1.284       .  A
O1342     Ni1344   1.903       .  S
O1342      C1345   1.279       .  A
Ni1343    Ni1344   2.397       .  S
C1345      C1478   1.436       .  S
C1348      C1398   1.433       .  S
O1349     Ni1357   1.914       .  S
O1349      C1359   1.283       .  A
O1350     Ni1357   1.973       .  S
O1350      C1360   1.296       .  A
O1351     Ni1357   1.954       .  S
O1351      C1361   1.290       .  A
O1352     Ni1357   1.876       .  S
O1352      C1362   1.273       .  A
O1353     Ni1358   1.893       .  S
O1353      C1362   1.277       .  A
O1354     Ni1358   1.950       .  S
O1354      C1361   1.290       .  A
O1355     Ni1358   1.961       .  S
O1355      C1360   1.290       .  A
O1356     Ni1358   1.894       .  S
O1356      C1359   1.277       .  A
Ni1357    Ni1358   2.390       .  S
C1359      C1448   1.461       .  S
C1362      C1391   1.425       .  S
O1363     Ni1371   1.911       .  S
O1363      C1373   1.280       .  A
O1364     Ni1371   1.967       .  S
O1364      C1374   1.293       .  A
O1365     Ni1371   1.949       .  S
O1365      C1375   1.288       .  A
O1366     Ni1371   1.900       .  S
O1366      C1376   1.276       .  A
O1367     Ni1372   1.891       .  S
O1367      C1376   1.277       .  A
O1368     Ni1372   1.925       .  S
O1368      C1375   1.286       .  A
O1369     Ni1372   1.919       .  S
O1369      C1374   1.282       .  A
O1370     Ni1372   1.885       .  S
O1370      C1373   1.275       .  A
Ni1371    Ni1372   2.391       .  S
C1373      C1438   1.446       .  S
C1376      C1491   1.440       .  S
C1377      C1378   1.398       .  A
C1377      C1382   1.377       .  A
C1377      H1384   1.084       .  S
C1378      C1379   1.396       .  A
C1379      C1380   1.380       .  A
C1379      F1386   1.355       .  S
C1380      C1381   1.400       .  A
C1380      H1385   1.084   1_545  S
C1381      C1382   1.399       .  A
C1382      F1383   1.358       .  S
C1387      C1388   1.395       .  A
C1387      C1392   1.378       .  A
C1387      H1394   1.084       .  S
C1388      C1389   1.405       .  A
C1389      C1390   1.383       .  A
C1389      F1396   1.358       .  S
C1390      C1391   1.394       .  A
C1390      H1395   1.084       .  S
C1391      C1392   1.393       .  A
C1392      F1393   1.348       .  S
C1397      C1398   1.397       .  A
C1397      C1402   1.387       .  A
C1397      H1404   1.084       .  S
C1398      C1399   1.399       .  A
C1399      C1400   1.378       .  A
C1399      F1406   1.359       .  S
C1400      C1401   1.398       .  A
C1400      H1405   1.084       .  S
C1401      C1402   1.405       .  A
C1402      F1403   1.358       .  S
C1407      C1408   1.403       .  A
C1407      C1412   1.388       .  A
C1407      H1414   1.083       .  S
C1408      C1409   1.403       .  A
C1409      C1410   1.389       .  A
C1409      F1416   1.356       .  S
C1410      C1411   1.401       .  A
C1410      H1415   1.084       .  S
C1411      C1412   1.403       .  A
C1412      F1413   1.358       .  S
C1417      C1418   1.398       .  A
C1417      C1422   1.386       .  A
C1417      H1424   1.084       .  S
C1418      C1419   1.405       .  A
C1419      C1420   1.386       .  A
C1419      F1426   1.358       .  S
C1420      C1421   1.397       .  A
C1420      H1425   1.084       .  S
C1421      C1422   1.397       .  A
C1422      F1423   1.352       .  S
C1427      C1428   1.410       .  A
C1427      C1432   1.383       .  A
C1427      H1434   1.083       .  S
C1428      C1429   1.402       .  A
C1429      C1430   1.394       .  A
C1429      F1436   1.353   1_545  S
C1430      C1431   1.404       .  A
C1430      H1435   1.083       .  S
C1431      C1432   1.396       .  A
C1432      F1433   1.358       .  S
C1437      C1438   1.403       .  A
C1437      C1442   1.394       .  A
C1437      H1444   1.083       .  S
C1438      C1439   1.399       .  A
C1439      C1440   1.385       .  A
C1439      F1446   1.358       .  S
C1440      C1441   1.403       .  A
C1440      H1445   1.084       .  S
C1441      C1442   1.397       .  A
C1442      F1443   1.355       .  S
C1447      C1448   1.403       .  A
C1447      C1452   1.392       .  A
C1447      H1454   1.084       .  S
C1448      C1449   1.400       .  A
C1449      C1450   1.388       .  A
C1449      F1456   1.358       .  S
C1450      C1451   1.404       .  A
C1450      H1455   1.077   1_455  S
C1451      C1452   1.408       .  A
C1452      F1453   1.357       .  S
C1457      C1458   1.402       .  A
C1457      C1462   1.388       .  A
C1457      H1464   1.083       .  S
C1458      C1459   1.405       .  A
C1459      C1460   1.385       .  A
C1459      F1466   1.358       .  S
C1460      C1461   1.402       .  A
C1460      H1465   1.084       .  S
C1461      C1462   1.398       .  A
C1462      F1463   1.349       .  S
C1467      C1468   1.387       .  A
C1467      C1472   1.378       .  A
C1467      H1474   1.075       .  S
C1468      C1469   1.404       .  A
C1469      C1470   1.396       .  A
C1469      F1476   1.357       .  S
C1470      C1471   1.404       .  A
C1470      H1475   1.083       .  S
C1471      C1472   1.393       .  A
C1472      F1473   1.352   1_455  S
C1477      C1478   1.391       .  A
C1477      C1482   1.383       .  A
C1477      H1484   1.084       .  S
C1478      C1479   1.402       .  A
C1479      C1480   1.384       .  A
C1479      F1486   1.357       .  S
C1480      C1481   1.399       .  A
C1480      H1485   1.083       .  S
C1481      C1482   1.412       .  A
C1482      F1483   1.358       .  S
C1487      C1488   1.410       .  A
C1487      C1492   1.393       .  A
C1487      H1494   1.083       .  S
C1488      C1489   1.398       .  A
C1489      C1490   1.379       .  A
C1489      F1496   1.357       .  S
C1490      C1491   1.397       .  A
C1490      H1495   1.079       .  S
C1491      C1492   1.395       .  A
C1492      F1493   1.357       .  S
C1497      C1498   1.393       .  A
C1497      C1502   1.385       .  A
C1497      H1504   1.078       .  S
C1498      C1499   1.408       .  A
C1499      C1500   1.385       .  A
C1499      F1506   1.356       .  S
C1500      C1501   1.395       .  A
C1500      H1505   1.084       .  S
C1501      C1502   1.404       .  A
C1502      F1503   1.355       .  S
C1507      C1508   1.397       .  A
C1507      C1512   1.385       .  A
C1507      H1514   1.078       .  S
C1508      C1509   1.409       .  A
C1509      C1510   1.387       .  A
C1509      F1516   1.358       .  S
C1510      C1511   1.396       .  A
C1510      H1515   1.084       .  S
C1511      C1512   1.404       .  A
C1512      F1513   1.358       .  S
C1517      C1518   1.403       .  A
C1517      C1522   1.385       .  A
C1517      H1524   1.078       .  S
C1518      C1519   1.418       .  A
C1519      C1520   1.388       .  A
C1519      F1526   1.354       .  S
C1520      C1521   1.396       .  A
C1520      H1525   1.084       .  S
C1521      C1522   1.399       .  A
C1522      F1523   1.358       .  S
C1527      C1528   1.401       .  A
C1527      C1532   1.390       .  A
C1527      H1534   1.083       .  S
C1528      C1529   1.404       .  A
C1529      C1530   1.391       .  A
C1529      F1536   1.355   1_655  S
C1530      C1531   1.397       .  A
C1530      H1535   1.083       .  S
C1531      C1532   1.407       .  A
C1532      F1533   1.358       .  S
C1537      C1538   1.403       .  A
C1537      C1542   1.390       .  A
C1537      H1544   1.084       .  S
C1538      C1539   1.405       .  A
C1539      C1540   1.389       .  A
C1539      F1546   1.358       .  S
C1540      C1541   1.402       .  A
C1540      H1545   1.084       .  S
C1541      C1542   1.404       .  A
C1542      F1543   1.356   1_655  S
C1547      C1548   1.404       .  A
C1547      C1552   1.384       .  A
C1547      H1554   1.083       .  S
C1548      C1549   1.403       .  A
C1549      C1550   1.389       .  A
C1549      F1556   1.357       .  S
C1550      C1551   1.401       .  A
C1550      H1555   1.084       .  S
C1551      C1552   1.399       .  A
C1552      F1553   1.358       .  S
C1557      C1558   1.408       .  A
C1557      C1562   1.396       .  A
C1557      H1564   1.082       .  S
C1558      C1559   1.405       .  A
C1559      C1560   1.386       .  A
C1559      F1566   1.358       .  S
C1560      C1561   1.399       .  A
C1560      H1565   1.082       .  S
C1561      C1562   1.400       .  A
C1562      F1563   1.358       .  S
C1567      C1568   1.398       .  A
C1567      C1572   1.389       .  A
C1567      H1574   1.083       .  S
C1568      C1569   1.409       .  A
C1569      C1570   1.382       .  A
C1569      F1576   1.357       .  S
C1570      C1571   1.393       .  A
C1570      H1575   1.084       .  S
C1571      C1572   1.405       .  A
C1572      F1573   1.357       .  S
C1577      C1578   1.401       .  A
C1577      C1582   1.383       .  A
C1577      H1584   1.080       .  S
C1578      C1579   1.391       .  A
C1579      C1580   1.392       .  A
C1579      F1586   1.358       .  S
C1580      C1581   1.418       .  A
C1580      H1585   1.079       .  S
C1581      C1582   1.400       .  A
C1582      F1583   1.356       .  S
C1587      C1588   1.400       .  A
C1587      C1592   1.381       .  A
C1587      H1594   1.084       .  S
C1588      C1589   1.406       .  A
C1589      C1590   1.397       .  A
C1589      F1596   1.353       .  S
C1590      C1591   1.401       .  A
C1590      H1595   1.083       .  S
C1591      C1592   1.403       .  A
C1592      F1593   1.356       .  S
C1597      C1598   1.398       .  A
C1597      C1602   1.392       .  A
C1597      H1604   1.082       .  S
C1598      C1599   1.405       .  A
C1599      C1600   1.385       .  A
C1599      F1606   1.358       .  S
C1600      C1601   1.396       .  A
C1600      H1605   1.084       .  S
C1601      C1602   1.405       .  A
C1602      F1603   1.358       .  S
C1607      C1608   1.401       .  A
C1607      C1612   1.391       .  A
C1607      H1614   1.084       .  S
C1608      C1609   1.399       .  A
C1609      C1610   1.390       .  A
C1609      F1616   1.358       .  S
C1610      C1611   1.408       .  A
C1610      H1615   1.080       .  S
C1611      C1612   1.403       .  A
C1612      F1613   1.355       .  S
C1617      C1618   1.402       .  A
C1617      C1622   1.389       .  A
C1617      H1624   1.082       .  S
C1618      C1619   1.411       .  A
C1619      C1620   1.388       .  A
C1619      F1626   1.358       .  S
C1620      C1621   1.399       .  A
C1620      H1625   1.084       .  S
C1621      C1622   1.404       .  A
C1622      F1623   1.358       .  S
C1627      C1628   1.410       .  A
C1627      C1632   1.397       .  A
C1627      H1634   1.082       .  S
C1628      C1629   1.402       .  A
C1629      C1630   1.387       .  A
C1629      F1636   1.356   1_455  S
C1630      C1631   1.398       .  A
C1630      H1635   1.081       .  S
C1631      C1632   1.400       .  A
C1632      F1633   1.358       .  S
C1637      C1638   1.404       .  A
C1637      C1642   1.387       .  A
C1637      H1644   1.083       .  S
C1638      C1639   1.390       .  A
C1639      C1640   1.386       .  A
C1639      F1646   1.358       .  S
C1640      C1641   1.413       .  A
C1640      H1645   1.084       .  S
C1641      C1642   1.395       .  A
C1642      F1643   1.355       .  S
C1647      C1648   1.408       .  A
C1647      C1652   1.391       .  A
C1647      H1654   1.083       .  S
C1648      C1649   1.403       .  A
C1649      C1650   1.385       .  A
C1649      F1656   1.358       .  S
C1650      C1651   1.400       .  A
C1650      H1655   1.084       .  S
C1651      C1652   1.398       .  A
C1652      F1653   1.358       .  S
C1657      C1658   1.394       .  A
C1657      C1662   1.383       .  A
C1657      H1664   1.084       .  S
C1658      C1659   1.405       .  A
C1659      C1660   1.390       .  A
C1659      F1666   1.358       .  S
C1660      C1661   1.400       .  A
C1660      H1665   1.079       .  S
C1661      C1662   1.409       .  A
C1662      F1663   1.355       .  S
C1667      C1668   1.404       .  A
C1667      C1672   1.388       .  A
C1667      H1674   1.083       .  S
C1668      C1669   1.418       .  A
C1669      C1670   1.389       .  A
C1669      F1676   1.353       .  S
C1670      C1671   1.394       .  A
C1670      H1675   1.084       .  S
C1671      C1672   1.405       .  A
C1672      F1673   1.357       .  S
C1677      C1678   1.407       .  A
C1677      C1682   1.392       .  A
C1677      H1684   1.084       .  S
C1678      C1679   1.397       .  A
C1679      C1680   1.386       .  A
C1679      F1686   1.358       .  S
C1680      C1681   1.406       .  A
C1680      H1685   1.079       .  S
C1681      C1682   1.398       .  A
C1682      F1683   1.353       .  S
C1687      C1688   1.404       .  A
C1687      C1692   1.395       .  A
C1687      H1694   1.080       .  S
C1688      C1689   1.406       .  A
C1689      C1690   1.384       .  A
C1689      F1696   1.358       .  S
C1690      C1691   1.399       .  A
C1690      H1695   1.084       .  S
C1691      C1692   1.399       .  A
C1692      F1693   1.355       .  S
C1697      C1698   1.402       .  A
C1697      C1702   1.390       .  A
C1697      H1704   1.083       .  S
C1698      C1699   1.400       .  A
C1699      C1700   1.385       .  A
C1699      F1706   1.358       .  S
C1700      C1701   1.404       .  A
C1700      H1705   1.079       .  S
C1701      C1702   1.403       .  A
C1702      F1703   1.355       .  S
C1707      C1708   1.399       .  A
C1707      C1712   1.383       .  A
C1707      H1714   1.084       .  S
C1708      C1709   1.400       .  A
C1709      C1710   1.394       .  A
C1709      F1716   1.358       .  S
C1710      C1711   1.408       .  A
C1710      H1715   1.083       .  S
C1711      C1712   1.400       .  A
C1712      F1713   1.350       .  S
C1717      C1718   1.413       .  A
C1717      C1722   1.390       .  A
C1717      H1724   1.079       .  S
C1718      C1719   1.403       .  A
C1719      C1720   1.386       .  A
C1719      F1726   1.358       .  S
C1720      C1721   1.402       .  A
C1720      H1725   1.081       .  S
C1721      C1722   1.394       .  A
C1722      F1723   1.358       .  S
C1727      C1728   1.397       .  A
C1727      C1732   1.390       .  A
C1727      H1734   1.077       .  S
C1728      C1729   1.404       .  A
C1729      C1730   1.383       .  A
C1729      F1736   1.356       .  S
C1730      C1731   1.397       .  A
C1730      H1735   1.084       .  S
C1731      C1732   1.405       .  A
C1732      F1733   1.358       .  S
C1737      C1738   1.392       .  A
C1737      C1742   1.392       .  A
C1737      H1744   1.080       .  S
C1738      C1739   1.406       .  A
C1739      C1740   1.385       .  A
C1739      F1746   1.358       .  S
C1740      C1741   1.396       .  A
C1740      H1745   1.084       .  S
C1741      C1742   1.402       .  A
C1742      F1743   1.355       .  S
C1747      C1748   1.409       .  A
C1747      C1752   1.390       .  A
C1747      H1754   1.082       .  S
C1748      C1749   1.399       .  A
C1749      C1750   1.384       .  A
C1749      F1756   1.353       .  S
C1750      C1751   1.401       .  A
C1750      H1755   1.083       .  S
C1751      C1752   1.397       .  A
C1752      F1753   1.358       .  S
C1757      C1758   1.407       .  A
C1757      C1762   1.395       .  A
C1757      H1764   1.083       .  S
C1758      C1759   1.398       .  A
C1759      C1760   1.389       .  A
C1759      F1766   1.354       .  S
C1760      C1761   1.400       .  A
C1760      H1765   1.080       .  S
C1761      C1762   1.401       .  A
C1762      F1763   1.358       .  S
C1767      C1768   1.397       .  A
C1767      C1772   1.381       .  A
C1767      H1774   1.084       .  S
C1768      C1769   1.400       .  A
C1769      C1770   1.386       .  A
C1769      F1776   1.353       .  S
C1770      C1771   1.399       .  A
C1770      H1775   1.081       .  S
C1771      C1772   1.404       .  A
C1772      F1773   1.354       .  S
C1777      C1778   1.403       .  A
C1777      C1782   1.391       .  A
C1777      H1784   1.083       .  S
C1778      C1779   1.414       .  A
C1779      C1780   1.382       .  A
C1779      F1786   1.354       .  S
C1780      C1781   1.392       .  A
C1780      H1785   1.084       .  S
C1781      C1782   1.405       .  A
C1782      F1783   1.357       .  S
C1787      C1788   1.401       .  A
C1787      C1792   1.382       .  A
C1787      H1794   1.084       .  S
C1788      C1789   1.405       .  A
C1789      C1790   1.396       .  A
C1789      F1796   1.357       .  S
C1790      C1791   1.403       .  A
C1790      H1795   1.083       .  S
C1791      C1792   1.402       .  A
C1792      F1793   1.357       .  S
C1797      C1798   1.397       .  A
C1797      C1802   1.380       .  A
C1797      H1804   1.079       .  S
C1798      C1799   1.409       .  A
C1799      C1800   1.394       .  A
C1799      F1806   1.357       .  S
C1800      C1801   1.401       .  A
C1800      H1805   1.083       .  S
C1801      C1802   1.396       .  A
C1802      F1803   1.351       .  S
C1807      C1808   1.408       .  A
C1807      C1812   1.384       .  A
C1807      H1814   1.083       .  S
C1808      C1809   1.402       .  A
C1809      C1810   1.389       .  A
C1809      F1816   1.357       .  S
C1810      C1811   1.402       .  A
C1810      H1815   1.083       .  S
C1811      C1812   1.395       .  A
C1812      F1813   1.358       .  S
C1817      C1818   1.400       .  A
C1817      C1822   1.383       .  A
C1817      H1824   1.082       .  S
C1818      C1819   1.396       .  A
C1819      C1820   1.389       .  A
C1819      F1826   1.358       .  S
C1820      C1821   1.409       .  A
C1820      H1825   1.083       .  S
C1821      C1822   1.402       .  A
C1822      F1823   1.358       .  S
C1827      C1828   1.403       .  A
C1827      C1832   1.391       .  A
C1827      H1834   1.083       .  S
C1828      C1829   1.409       .  A
C1829      C1830   1.383       .  A
C1829      F1836   1.354       .  S
C1830      C1831   1.395       .  A
C1830      H1835   1.084       .  S
C1831      C1832   1.405       .  A
C1832      F1833   1.357       .  S
C1837      C1838   1.400       .  A
C1837      C1842   1.389       .  A
C1837      H1844   1.084       .  S
C1838      C1839   1.405       .  A
C1839      C1840   1.389       .  A
C1839      F1846   1.358       .  S
C1840      C1841   1.402       .  A
C1840      H1845   1.083       .  S
C1841      C1842   1.407       .  A
C1842      F1843   1.358       .  S
C1847      C1848   1.408       .  A
C1847      C1852   1.385       .  A
C1847      H1854   1.077       .  S
C1848      C1849   1.404       .  A
C1849      C1850   1.392       .  A
C1849      F1856   1.354       .  S
C1850      C1851   1.402       .  A
C1850      H1855   1.084       .  S
C1851      C1852   1.396       .  A
C1852      F1853   1.358       .  S
C1857      C1858   1.400       .  A
C1857      C1862   1.386       .  A
C1857      H1864   1.084       .  S
C1858      C1859   1.397       .  A
C1859      C1860   1.389       .  A
C1859      F1866   1.358       .  S
C1860      C1861   1.407       .  A
C1860      H1865   1.083       .  S
C1861      C1862   1.402       .  A
C1862      F1863   1.357       .  S
C1867      C1868   1.402       .  A
C1867      C1872   1.388       .  A
C1867      H1874   1.083       .  S
C1868      C1869   1.407       .  A
C1869      C1870   1.388       .  A
C1869      F1876   1.356       .  S
C1870      C1871   1.398       .  A
C1870      H1875   1.084       .  S
C1871      C1872   1.404       .  A
C1872      F1873   1.358       .  S
C1877      C1878   1.392       .  A
C1877      C1882   1.384       .  A
C1877      H1884   1.084       .  S
C1878      C1879   1.407       .  A
C1879      C1880   1.389       .  A
C1879      F1886   1.358       .  S
C1880      C1881   1.397       .  A
C1880      H1885   1.083       .  S
C1881      C1882   1.408       .  A
C1882      F1883   1.354       .  S
C1887      C1888   1.401       .  A
C1887      C1892   1.390       .  A
C1887      H1894   1.083       .  S
C1888      C1889   1.400       .  A
C1889      C1890   1.390       .  A
C1889      F1896   1.353       .  S
C1890      C1891   1.400       .  A
C1890      H1895   1.084       .  S
C1891      C1892   1.405       .  A
C1892      F1893   1.358       .  S
C1897      C1898   1.393       .  A
C1897      C1902   1.382       .  A
C1897      H1904   1.084       .  S
C1898      C1899   1.403       .  A
C1899      C1900   1.391       .  A
C1899      F1906   1.356       .  S
C1900      C1901   1.406       .  A
C1900      H1905   1.083       .  S
C1901      C1902   1.415       .  A
C1902      F1903   1.353       .  S
C1907      C1908   1.407       .  A
C1907      C1912   1.393       .  A
C1907      H1914   1.083   1_554  S
C1908      C1909   1.411       .  A
C1909      C1910   1.379       .  A
C1909      F1916   1.351       .  S
C1910      C1911   1.391       .  A
C1910      H1915   1.084       .  S
C1911      C1912   1.402       .  A
C1912      F1913   1.357       .  S
C1917      C1918   1.400       .  A
C1917      C1922   1.391       .  A
C1917      H1924   1.079   1_554  S
C1918      C1919   1.408       .  A
C1919      C1920   1.381       .  A
C1919      F1926   1.352       .  S
C1920      C1921   1.393       .  A
C1920      H1925   1.084       .  S
C1921      C1922   1.405       .  A
C1922      F1923   1.357       .  S
C1927      C1928   1.401       .  A
C1927      C1932   1.387       .  A
C1927      H1934   1.083       .  S
C1928      C1929   1.398       .  A
C1929      C1930   1.388       .  A
C1929      F1936   1.358       .  S
C1930      C1931   1.408       .  A
C1930      H1935   1.082       .  S
C1931      C1932   1.404       .  A
C1932      F1933   1.358       .  S
C1937      C1938   1.403       .  A
C1937      C1942   1.386       .  A
C1937      H1944   1.083       .  S
C1938      C1939   1.411       .  A
C1939      C1940   1.390       .  A
C1939      F1946   1.355       .  S
C1940      C1941   1.399       .  A
C1940      H1945   1.084       .  S
C1941      C1942   1.395       .  A
C1942      F1943   1.348       .  S
C1947      C1948   1.405       .  A
C1947      C1952   1.389       .  A
C1947      H1954   1.083       .  S
C1948      C1949   1.398       .  A
C1949      C1950   1.390       .  A
C1949      F1956   1.351       .  S
C1950      C1951   1.399       .  A
C1950      H1955   1.084       .  S
C1951      C1952   1.400       .  A
C1952      F1953   1.358       .  S
C1957      C1958   1.401       .  A
C1957      C1962   1.388       .  A
C1957      H1964   1.084       .  S
C1958      C1959   1.410       .  A
C1959      C1960   1.383       .  A
C1959      F1966   1.358       .  S
C1960      C1961   1.395       .  A
C1960      H1965   1.084       .  S
C1961      C1962   1.404       .  A
C1962      F1963   1.356       .  S
C1967      C1968   1.407       .  A
C1967      C1972   1.390       .  A
C1967      H1974   1.084       .  S
C1968      C1969   1.388       .  A
C1969      C1970   1.377       .  A
C1969      F1976   1.342       .  S
C1970      C1971   1.396       .  A
C1970      H1975   1.083       .  S
C1971      C1972   1.397       .  A
C1972      F1973   1.357       .  S
C1977      C1978   1.403       .  A
C1977      C1982   1.385       .  A
C1977      H1984   1.083       .  S
C1978      C1979   1.404       .  A
C1979      C1980   1.391       .  A
C1979      F1986   1.356       .  S
C1980      C1981   1.398       .  A
C1980      H1985   1.081       .  S
C1981      C1982   1.405       .  A
C1982      F1983   1.358       .  S
C1987      C1988   1.401       .  A
C1987      C1992   1.384       .  A
C1987      H1994   1.084       .  S
C1988      C1989   1.400       .  A
C1989      C1990   1.388       .  A
C1989      F1996   1.358       .  S
C1990      C1991   1.404       .  A
C1990      H1995   1.083       .  S
C1991      C1992   1.402       .  A
C1992      F1993   1.357   1_556  S
C1997      C1998   1.404       .  A
C1997      C2002   1.392       .  A
C1997      H2004   1.083       .  S
C1998      C1999   1.401       .  A
C1999      C2000   1.383       .  A
C1999      F2006   1.355       .  S
C2000      C2001   1.397       .  A
C2000      H2005   1.075       .  S
C2001      C2002   1.406       .  A
C2002      F2003   1.358       .  S
C2007      C2008   1.413       .  A
C2007      C2012   1.388       .  A
C2007      H2014   1.079       .  S
C2008      C2009   1.403       .  A
C2009      C2010   1.389       .  A
C2009      F2016   1.356       .  S
C2010      C2011   1.404       .  A
C2010      H2015   1.083       .  S
C2011      C2012   1.394       .  A
C2012      F2013   1.358       .  S
C2017      C2018   1.401       .  A
C2017      C2022   1.389       .  A
C2017      H2024   1.084       .  S
C2018      C2019   1.400       .  A
C2019      C2020   1.393       .  A
C2019      F2026   1.358       .  S
C2020      C2021   1.408       .  A
C2020      H2025   1.083       .  S
C2021      C2022   1.405       .  A
C2022      F2023   1.356       .  S
C2027      C2028   1.405       .  A
C2027      C2032   1.382       .  A
C2027      H2034   1.080       .  S
C2028      C2029   1.402       .  A
C2029      C2030   1.393       .  A
C2029      F2036   1.353       .  S
C2030      C2031   1.405       .  A
C2030      H2035   1.084       .  S
C2031      C2032   1.400       .  A
C2032      F2033   1.358       .  S
C2037      C2038   1.405       .  A
C2037      C2042   1.388       .  A
C2037      H2044   1.083       .  S
C2038      C2039   1.396       .  A
C2039      C2040   1.383       .  A
C2039      F2046   1.348       .  S
C2040      C2041   1.400       .  A
C2040      H2045   1.084       .  S
C2041      C2042   1.401       .  A
C2042      F2043   1.358       .  S
C2047      C2048   1.397       .  A
C2047      C2052   1.392       .  A
C2047      H2054   1.080       .  S
C2048      C2049   1.405       .  A
C2049      C2050   1.386       .  A
C2049      F2056   1.358       .  S
C2050      C2051   1.401       .  A
C2050      H2055   1.083       .  S
C2051      C2052   1.402       .  A
C2052      F2053   1.354       .  S
C2057      C2058   1.401       .  A
C2057      C2062   1.391       .  A
C2057      H2064   1.083       .  S
C2058      C2059   1.411       .  A
C2059      C2060   1.384       .  A
C2059      F2066   1.358       .  S
C2060      C2061   1.391       .  A
C2060      H2065   1.084       .  S
C2061      C2062   1.403       .  A
C2062      F2063   1.357       .  S
C2067      C2068   1.403       .  A
C2067      C2072   1.382       .  A
C2067      H2074   1.083       .  S
C2068      C2069   1.413       .  A
C2069      C2070   1.388       .  A
C2069      F2076   1.357       .  S
C2070      C2071   1.397       .  A
C2070      H2075   1.084       .  S
C2071      C2072   1.397       .  A
C2072      F2073   1.355       .  S
C2077      C2078   1.391       .  A
C2077      C2082   1.378       .  A
C2077      H2084   1.084       .  S
C2078      C2079   1.411       .  A
C2079      C2080   1.390       .  A
C2079      F2086   1.358       .  S
C2080      C2081   1.393       .  A
C2080      H2085   1.084       .  S
C2081      C2082   1.399       .  A
C2082      F2083   1.346       .  S
C2087      C2088   1.394       .  A
C2087      C2092   1.383       .  A
C2087      H2094   1.084       .  S
C2088      C2089   1.402       .  A
C2089      C2090   1.382       .  A
C2089      F2096   1.358       .  S
C2090      C2091   1.397       .  A
C2090      H2095   1.084       .  S
C2091      C2092   1.408       .  A
C2092      F2093   1.358       .  S
C2097      C2098   1.400       .  A
C2097      C2102   1.381       .  A
C2097      H2104   1.084       .  S
C2098      C2099   1.407       .  A
C2099      C2100   1.392       .  A
C2099      F2106   1.357       .  S
C2100      C2101   1.398       .  A
C2100      H2105   1.083       .  S
C2101      C2102   1.401       .  A
C2102      F2103   1.359       .  S
C2107      C2108   1.410       .  A
C2107      C2112   1.387       .  A
C2107      H2114   1.081       .  S
C2108      C2109   1.404       .  A
C2109      C2110   1.391       .  A
C2109      F2116   1.356   1_565  S
C2110      C2111   1.402       .  A
C2110      H2115   1.084       .  S
C2111      C2112   1.396       .  A
C2112      F2113   1.358       .  S
C2117      C2118   1.406       .  A
C2117      C2122   1.390       .  A
C2117      H2124   1.083       .  S
C2118      C2119   1.405       .  A
C2119      C2120   1.391       .  A
C2119      F2126   1.357       .  S
C2120      C2121   1.401       .  A
C2120      H2125   1.084       .  S
C2121      C2122   1.400       .  A
C2122      F2123   1.358       .  S
C2127      C2128   1.404       .  A
C2127      C2132   1.388       .  A
C2127      H2134   1.083       .  S
C2128      C2129   1.398       .  A
C2129      C2130   1.389       .  A
C2129      F2136   1.358       .  S
C2130      C2131   1.409       .  A
C2130      H2135   1.081       .  S
C2131      C2132   1.402       .  A
C2132      F2133   1.357   1_565  S
C2137      C2138   1.395       .  A
C2137      C2142   1.393       .  A
C2137      H2144   1.084       .  S
C2138      C2139   1.401       .  A
C2139      C2140   1.380       .  A
C2139      F2146   1.353       .  S
C2140      C2141   1.398       .  A
C2140      H2145   1.084       .  S
C2141      C2142   1.414       .  A
C2142      F2143   1.357       .  S
C2147      C2148   1.406       .  A
C2147      C2152   1.385       .  A
C2147      H2154   1.076       .  S
C2148      C2149   1.401       .  A
C2149      C2150   1.382       .  A
C2149      F2156   1.342       .  S
C2150      C2151   1.396       .  A
C2150      H2155   1.081       .  S
C2151      C2152   1.400       .  A
C2152      F2153   1.358       .  S
C2157      C2158   1.400       .  A
C2157      C2162   1.388       .  A
C2157      H2164   1.081       .  S
C2158      C2159   1.396       .  A
C2159      C2160   1.384       .  A
C2159      F2166   1.358       .  S
C2160      C2161   1.407       .  A
C2160      H2165   1.083       .  S
C2161      C2162   1.400       .  A
C2162      F2163   1.353   1_565  S
C2167      C2168   1.403       .  A
C2167      C2172   1.386       .  A
C2167      H2174   1.084       .  S
C2168      C2169   1.414       .  A
C2169      C2170   1.388       .  A
C2169      F2176   1.352       .  S
C2170      C2171   1.396       .  A
C2170      H2175   1.084       .  S
C2171      C2172   1.400       .  A
C2172      F2173   1.352       .  S
C2177      C2178   1.397       .  A
C2177      C2182   1.397       .  A
C2177      H2184   1.083       .  S
C2178      C2179   1.398       .  A
C2179      C2180   1.376       .  A
C2179      F2186   1.346       .  S
C2180      C2181   1.393       .  A
C2180      H2185   1.084       .  S
C2181      C2182   1.413       .  A
C2182      F2183   1.357       .  S
C2187      C2188   1.402       .  A
C2187      C2192   1.381       .  A
C2187      H2194   1.084       .  S
C2188      C2189   1.397       .  A
C2189      C2190   1.387       .  A
C2189      F2196   1.358       .  S
C2190      C2191   1.410       .  A
C2190      H2195   1.079       .  S
C2191      C2192   1.400       .  A
C2192      F2193   1.352       .  S
C2197      C2198   1.401       .  A
C2197      C2202   1.384       .  A
C2197      H2204   1.084       .  S
C2198      C2199   1.396       .  A
C2199      C2200   1.389       .  A
C2199      F2206   1.358       .  S
C2200      C2201   1.413       .  A
C2200      H2205   1.078       .  S
C2201      C2202   1.402       .  A
C2202      F2203   1.349       .  S
C2207      C2208   1.401       .  A
C2207      C2212   1.394       .  A
C2207      H2214   1.084       .  S
C2208      C2209   1.402       .  A
C2209      C2210   1.384       .  A
C2209      F2216   1.358       .  S
C2210      C2211   1.401       .  A
C2210      H2215   1.080       .  S
C2211      C2212   1.409       .  A
C2212      F2213   1.357       .  S
C2217      C2218   1.397       .  A
C2217      C2222   1.385       .  A
C2217      H2224   1.084   1_565  S
C2218      C2219   1.412       .  A
C2219      C2220   1.390       .  A
C2219      F2226   1.358       .  S
C2220      C2221   1.394       .  A
C2220      H2225   1.084       .  S
C2221      C2222   1.407       .  A
C2222      F2223   1.358       .  S
C2227      C2228   1.401       .  A
C2227      C2232   1.390       .  A
C2227      H2234   1.083       .  S
C2228      C2229   1.409       .  A
C2229      C2230   1.378       .  A
C2229      F2236   1.355       .  S
C2230      C2231   1.391       .  A
C2230      H2235   1.084       .  S
C2231      C2232   1.403       .  A
C2232      F2233   1.357       .  S
C2237      C2238   1.405       .  A
C2237      C2242   1.381       .  A
C2237      H2244   1.078       .  S
C2238      C2239   1.402       .  A
C2239      C2240   1.393       .  A
C2239      F2246   1.356       .  S
C2240      C2241   1.404       .  A
C2240      H2245   1.083       .  S
C2241      C2242   1.397       .  A
C2242      F2243   1.359       .  S
C2247      C2248   1.400   1_455  A
C2247      C2252   1.390   1_455  A
C2247      H2254   1.078       .  S
C2248      C2249   1.408       .  A
C2249      C2250   1.385       .  A
C2249      F2256   1.358       .  S
C2250      C2251   1.399       .  A
C2250      H2255   1.084       .  S
C2251      C2252   1.398       .  A
C2252      F2253   1.357   1_655  S
C2257      C2258   1.408       .  A
C2257      C2262   1.384       .  A
C2257      H2264   1.083       .  S
C2258      C2259   1.400       .  A
C2259      C2260   1.388       .  A
C2259      F2266   1.356       .  S
C2260      C2261   1.401       .  A
C2260      H2265   1.082       .  S
C2261      C2262   1.395       .  A
C2262      F2263   1.358       .  S
C2267      C2268   1.399       .  A
C2267      C2272   1.384       .  A
C2267      H2274   1.084   1_556  S
C2268      C2269   1.412       .  A
C2269      C2270   1.388       .  A
C2269      F2276   1.358       .  S
C2270      C2271   1.395       .  A
C2270      H2275   1.084       .  S
C2271      C2272   1.400       .  A
C2272      F2273   1.352       .  S
C2277      C2278   1.401       .  A
C2277      C2282   1.382       .  A
C2277      H2284   1.084       .  S
C2278      C2279   1.406       .  A
C2279      C2280   1.394       .  A
C2279      F2286   1.357       .  S
C2280      C2281   1.403       .  A
C2280      H2285   1.083       .  S
C2281      C2282   1.403       .  A
C2282      F2283   1.357       .  S
C2287      C2288   1.401       .  A
C2287      C2292   1.389       .  A
C2287      H2294   1.083   1_565  S
C2288      C2289   1.403       .  A
C2289      C2290   1.381       .  A
C2289      F2296   1.358       .  S
C2290      C2291   1.398       .  A
C2290      H2295   1.084       .  S
C2291      C2292   1.403       .  A
C2292      F2293   1.358       .  S
C2297      C2298   1.401       .  A
C2297      C2302   1.387       .  A
C2297      H2304   1.081       .  S
C2298      C2299   1.395       .  A
C2299      C2300   1.388       .  A
C2299      F2306   1.358       .  S
C2300      C2301   1.411       .  A
C2300      H2305   1.082       .  S
C2301      C2302   1.403       .  A
C2302      F2303   1.357   1_565  S
C2307      C2308   1.405       .  A
C2307      C2312   1.390       .  A
C2307      H2314   1.083       .  S
C2308      C2309   1.406       .  A
C2309      C2310   1.390       .  A
C2309      F2316   1.356       .  S
C2310      C2311   1.399       .  A
C2310      H2315   1.084       .  S
C2311      C2312   1.402       .  A
C2312      F2313   1.358       .  S
C2317      C2318   1.409       .  A
C2317      C2322   1.386       .  A
C2317      H2324   1.080       .  S
C2318      C2319   1.399       .  A
C2319      C2320   1.386       .  A
C2319      F2326   1.356       .  S
C2320      C2321   1.402       .  A
C2320      H2325   1.082       .  S
C2321      C2322   1.394       .  A
C2322      F2323   1.358       .  S
C2327      C2328   1.391       .  A
C2327      C2332   1.382       .  A
C2327      H2334   1.084       .  S
C2328      C2329   1.405       .  A
C2329      C2330   1.390       .  A
C2329      F2336   1.357       .  S
C2330      C2331   1.395       .  A
C2330      H2335   1.079       .  S
C2331      C2332   1.408       .  A
C2332      F2333   1.357       .  S
