geometry optimzed in LAMMPS
_audit_creation_date              2020-11-30 
_audit_creation_method            'lammps2cif' 
_symmetry_space_group_name_H-M    'P1' 
_symmetry_Int_Tables_number       1 
_symmetry_cell_setting            triclinic 
loop_ 
_symmetry_equiv_pos_as_xyz 
  x,y,z 
_cell_length_a                    36.32998906 
_cell_length_b                    36.73098076299344 
_cell_length_c                    36.80723741618322 
_cell_angle_alpha                 90.6214972534099 
_cell_angle_beta                  90.33325920590813 
_cell_angle_gamma                 90.82830601845627 
loop_ 
_atom_site_label 
_atom_site_type_symbol 
_atom_site_fract_x 
_atom_site_fract_y 
_atom_site_fract_z 
_atom_site_charge 
O1          O  0.54786569  0.95038537  0.46745328    -0.80600
O2          O  0.44460438  0.93098797  0.51962341    -0.80600
O3          O  0.53719425  0.00308890  0.56895432    -0.80600
O4          O  0.46823572  0.96100287  0.42672926    -0.80600
O5          O  0.50468328  0.95234867  0.56507443    -0.80700
O6          O  0.52050575  0.98945445  0.41432994    -0.80600
O7          O  0.41262268  0.95918651  0.47795033    -0.80600
O8          O  0.56743436  0.97513412  0.51541485    -0.80600
C9          C  0.57048284  0.94987981  0.49249490     1.09100
C10         C  0.41527290  0.93392424  0.50116380     1.09000
C11         C  0.52880583  0.97210949  0.58133845     1.09100
C12         C  0.49239965  0.97051116  0.40394722     1.09000
O13         O  0.51887122  0.05262447  0.46055294    -0.80600
O14         O  0.47115335  0.02182932  0.57161574    -0.80700
O15         O  0.57597674  0.04567611  0.51845669    -0.80600
O16         O  0.42618981  0.03640769  0.48942405    -0.80600
O17         O  0.41086621  0.00007114  0.53351129    -0.80700
O18         O  0.58538924  0.02180671  0.46293353    -0.80600
O19         O  0.47009075  0.03797942  0.42966116    -0.80600
O20         O  0.50002634  0.05890250  0.53352853    -0.80600
Co21       Co  0.53286742  0.00123677  0.46753050     1.51500
Co22       Co  0.46018045  0.97639441  0.54434061     1.51700
Co23       Co  0.53102456  0.01717885  0.51725194     1.51600
Co24       Co  0.44692475  0.99828508  0.45872680     1.51500
O25         O  0.48664313  0.98947202  0.49676670    -1.42500
C26         C  0.49869865  0.05756227  0.43307797     1.09000
C27         C  0.48246057  0.05335281  0.56303537     1.09100
C28         C  0.59672799  0.04186642  0.49050734     1.09000
C29         C  0.40339827  0.02664019  0.51296136     1.09000
O30         O  0.95584006  0.53504683  0.50925205    -0.80600
O31         O  0.94720077  0.43259571  0.49700646    -0.80600
O32         O  0.99662233  0.51062332  0.41393667    -0.80600
O33         O  0.96586792  0.47659081  0.56285007    -0.80600
O34         O  0.95100956  0.47690494  0.43570086    -0.80700
O35         O  0.97900662  0.53200591  0.58195763    -0.80600
O36         O  0.98414298  0.41037647  0.53652774    -0.80600
O37         O  0.99281854  0.56064725  0.46940247    -0.80600
C38         C  0.96406940  0.56195014  0.48955520     1.09100
C39         C  0.95533699  0.40652643  0.51731261     1.09000
C40         C  0.96361064  0.49923351  0.41251807     1.09100
C41         C  0.96357680  0.50134619  0.58772214     1.09000
O42         O  0.04338453  0.49950884  0.56514158    -0.80600
O43         O  0.02044882  0.44548220  0.41920442    -0.80700
O44         O  0.06427737  0.53474895  0.49510995    -0.80600
O45         O  0.05588014  0.43384119  0.51748049    -0.80600
O46         O  0.01999356  0.40296390  0.47939135    -0.80700
O47         O  0.02630453  0.56235649  0.52974015    -0.80600
O48         O  0.02876492  0.44609725  0.58720285    -0.80600
O49         O  0.06468263  0.48327342  0.43836216    -0.80600
Co50       Co  0.99766560  0.51486203  0.53567306     1.51500
Co51       Co  0.98489588  0.44202740  0.45989166     1.51700
Co52       Co  0.02931470  0.52013440  0.45649554     1.51600
Co53       Co  0.01311439  0.45775935  0.53870566     1.51500
O54         O  0.00648973  0.48326074  0.49080112    -1.42500
C55         C  0.04435695  0.47695227  0.59172249     1.09000
C56         C  0.05315131  0.45781090  0.41734160     1.09100
C57         C  0.05480948  0.56405921  0.51023154     1.09000
C58         C  0.04868856  0.40468915  0.49999389     1.09000
O59         O  0.44920947  0.49560281  0.94536284    -0.80600
O60         O  0.55560060  0.52239987  0.95597953    -0.80600
O61         O  0.48627068  0.56833080  0.96651001    -0.80600
O62         O  0.53970606  0.42280020  0.98942571    -0.80600
O63         O  0.53972901  0.59251559  0.98182036    -0.80700
O64         O  0.50141755  0.43958162  0.94561624    -0.80600
O65         O  0.58326464  0.48425810  0.99265225    -0.80600
O66         O  0.42226652  0.53106277  0.98308930    -0.80600
C67         C  0.41991903  0.51062042  0.95539299     1.09100
C68         C  0.58439698  0.50537177  0.96513339     1.09000
C69         C  0.50837779  0.59621035  0.96679981     1.09100
C70         C  0.52621358  0.41870521  0.95770947     1.09000
O71         O  0.47246339  0.41627007  0.01241745    -0.80600
O72         O  0.50691765  0.56831333  0.04290985    -0.80700
O73         O  0.44925886  0.51196886  0.05244577    -0.80600
O74         O  0.54849376  0.50203482  0.06258729    -0.80600
O75         O  0.57397976  0.54207579  0.02855477    -0.80700
O76         O  0.42328660  0.47111965  0.01604003    -0.80600
O77         O  0.50592967  0.43921460  0.05752689    -0.80600
O78         O  0.45049413  0.58371545  0.02890606    -0.80600
Co79       Co  0.46399195  0.45822973  0.98012676     1.51500
Co80       Co  0.52810335  0.54335973  0.99694643     1.51700
Co81       Co  0.46981614  0.53844732  0.01114691     1.51600
Co82       Co  0.54188030  0.46411975  0.02505183     1.51500
O83         O  0.50168855  0.49422166  0.00214675    -1.42500
C84         C  0.48431699  0.41484106  0.04468620     1.09000
C85         C  0.48066620  0.59140938  0.04483690     1.09100
C86         C  0.42211388  0.49143788  0.04451906     1.09000
C87         C  0.57578568  0.52231816  0.05655661     1.09000
C88         C  0.62297891  0.96035340  0.77546132     0.79700
N89         N  0.60383412  0.96604583  0.74409255    -0.78600
C90         C  0.60914847  0.94458005  0.71425055     0.82200
N91         N  0.63300838  0.91664149  0.71629304    -0.78500
C92         C  0.65207094  0.90993927  0.74729171     0.82300
N93         N  0.64672756  0.93192953  0.77672619    -0.80200
C94         C  0.79162204  0.74410377  0.71965345     0.02700
C95         C  0.77022853  0.77570023  0.72026829    -0.13500
C96         C  0.74437430  0.78141473  0.74796272     0.00200
C97         C  0.74103302  0.75596745  0.77601177    -0.12000
C98         C  0.76284599  0.72475407  0.77609188     0.02600
C99         C  0.78796594  0.71894711  0.74791118    -0.11400
H100        H  0.77376019  0.79600729  0.69940807     0.08200
H101        H  0.72149963  0.76041957  0.79769935     0.05800
H102        H  0.80478977  0.69481047  0.74805269     0.05600
C103        C  0.95047831  0.75727957  0.57951060     0.79700
N104        N  0.95272363  0.72917960  0.55497667    -0.78600
C105        C  0.92981159  0.69934439  0.55726176     0.82200
N106        N  0.90438850  0.69837128  0.58444063    -0.78500
C107        C  0.90257921  0.72579213  0.60931505     0.82300
N108        N  0.92569264  0.75467063  0.60664345    -0.80200
C109        C  0.78680446  0.58788275  0.94197147     0.79700
N110        N  0.75477130  0.56818188  0.94619102    -0.78600
C111        C  0.72486484  0.57356189  0.92410730     0.82200
N112        N  0.72780938  0.59880924  0.89749410    -0.78500
C113        C  0.75912181  0.61885830  0.89271362     0.82300
N114        N  0.78831696  0.61291647  0.91497782    -0.80200
C115        C  0.28728980  0.22855661  0.75838770     0.02700
C116        C  0.28424376  0.25460076  0.78611361    -0.13500
C117        C  0.25553283  0.27956173  0.78528502     0.00200
C118        C  0.22995137  0.27859531  0.75674108    -0.12000
C119        C  0.23335304  0.25288963  0.72870720     0.02600
C120        C  0.26181855  0.22764136  0.72973929    -0.11400
H121        H  0.30427415  0.25564273  0.80806053     0.08200
H122        H  0.20796747  0.29822839  0.75597412     0.05800
H123        H  0.26434180  0.20753794  0.70814084     0.05600
C124        C  0.27998788  0.43436297  0.93150078     0.79700
N125        N  0.27928684  0.40791431  0.90558780    -0.78600
C126        C  0.24860855  0.38766689  0.89897013     0.82200
N127        N  0.21774276  0.39464656  0.91791204    -0.78500
C128        C  0.21694030  0.42171023  0.94323558     0.82300
N129        N  0.24845304  0.44164907  0.95030266    -0.80200
C130        C  0.43442436  0.07206230  0.76353368     0.79700
N131        N  0.44881594  0.06884012  0.72925336    -0.78600
C132        C  0.43957477  0.09322314  0.70285539     0.82200
N133        N  0.41682588  0.12080200  0.71119232    -0.78500
C134        C  0.40266112  0.12454681  0.74475271     0.82300
N135        N  0.41112887  0.09997790  0.77052171    -0.80200
C136        C  0.09209726  0.20710146  0.57341548     0.79700
N137        N  0.11510262  0.21161808  0.60210796    -0.78600
C138        C  0.13235193  0.24375427  0.60858239     0.82200
N139        N  0.12679879  0.27187985  0.58593241    -0.78500
C140        C  0.10324864  0.26872476  0.55717517     0.82300
N141        N  0.08546070  0.23603115  0.55123715    -0.80200
O142        O  0.48621402  0.02790093  0.91997561    -0.80600
O143        O  0.48373275  0.98481596  0.07142276    -0.80600
O144        O  0.46170628  0.96687349  0.96749695    -0.80600
O145        O  0.45870354  0.06581041  0.98349590    -0.80600
O146        O  0.48793583  0.93903021  0.01356930    -0.80700
O147        O  0.50340382  0.09033956  0.95445827    -0.80600
O148        O  0.44612763  0.02256987  0.04395388    -0.80600
O149        O  0.49860867  0.97246276  0.90138312    -0.80600
C150        C  0.48398597  0.00302923  0.89516690     1.09100
C151        C  0.45270945  0.99970110  0.06872877     1.09000
C152        C  0.46392039  0.93943487  0.98792221     1.09100
C153        C  0.47135444  0.09313404  0.96723801     1.09000
O154        O  0.56887892  0.06192151  0.98579126    -0.80600
O155        O  0.56451946  0.96029026  0.00513371    -0.80700
O156        O  0.56127325  0.00008489  0.93200584    -0.80600
O157        O  0.51292621  0.04968376  0.07522929    -0.80600
O158        O  0.55683419  0.00953945  0.06512701    -0.80700
O159        O  0.55494031  0.05537474  0.91135302    -0.80600
O160        O  0.52820665  0.09276443  0.01735080    -0.80600
O161        O  0.53262529  0.93737979  0.96076714    -0.80600
Co162      Co  0.52922577  0.04188598  0.95490300     1.51500
Co163      Co  0.52374032  0.97573477  0.03637437     1.51700
Co164      Co  0.50950574  0.98637104  0.95139412     1.51600
Co165      Co  0.48701018  0.05540083  0.02772356     1.51500
O166        O  0.51156366  0.01478221  0.99958562    -1.42500
C167        C  0.56029025  0.09053494  0.00300316     1.09000
C168        C  0.55560289  0.93257439  0.98621945     1.09100
C169        C  0.56943121  0.02427133  0.90817679     1.09000
C170        C  0.54250731  0.03442227  0.08476138     1.09000
C171        C  0.27357022  0.74387857  0.78696901     0.02700
C172        C  0.24876002  0.71439640  0.78889740    -0.13500
C173        C  0.22075564  0.71027838  0.76278494     0.00200
C174        C  0.21800339  0.73525942  0.73445727    -0.12000
C175        C  0.24294793  0.76449236  0.73234089     0.02600
C176        C  0.27065516  0.76882501  0.75865053    -0.11400
H177        H  0.25113752  0.69489196  0.81064529     0.08200
H178        H  0.19669711  0.73174872  0.71391653     0.05800
H179        H  0.29034164  0.79117784  0.75671115     0.05600
C180        C  0.42864729  0.79566399  0.93006145     0.79700
N181        N  0.40229236  0.79187816  0.90385494    -0.78600
C182        C  0.39625500  0.75960632  0.88649219     0.82200
N183        N  0.41652274  0.73062706  0.89593951    -0.78500
C184        C  0.44268083  0.73311573  0.92222113     0.82300
N185        N  0.44899740  0.76591473  0.93920035    -0.80200
C186        C  0.21401936  0.91091237  0.57920072     0.79700
N187        N  0.21362854  0.88476951  0.60508898    -0.78600
C188        C  0.24322196  0.86358586  0.61136786     0.82200
N189        N  0.27405112  0.86941970  0.59188909    -0.78500
C190        C  0.27583654  0.89559811  0.56636884     0.82300
N191        N  0.24563831  0.91637045  0.55978253    -0.80200
C192        C  0.05686874  0.56968258  0.78472563     0.79700
N193        N  0.05353909  0.54801673  0.75440385    -0.78600
C194        C  0.07917081  0.55001206  0.72739874     0.82200
N195        N  0.10831734  0.57319431  0.73138684    -0.78500
C196        C  0.11201637  0.59475996  0.76116134     0.82300
N197        N  0.08612084  0.59304593  0.78733893    -0.80200
C198        C  0.74441225  0.30134167  0.23529877     0.02700
C199        C  0.77367100  0.30083340  0.26035285    -0.13500
C200        C  0.77633771  0.27228172  0.28509916     0.00200
C201        C  0.74975301  0.24443739  0.28502113    -0.12000
C202        C  0.72043699  0.24486645  0.26040138     0.02600
C203        C  0.71785840  0.27313972  0.23524635    -0.11400
H204        H  0.79457395  0.32218615  0.26015091     0.08200
H205        H  0.75185368  0.22237717  0.30424586     0.05800
H206        H  0.69534780  0.27321943  0.21579791     0.05600
C207        C  0.92570868  0.21072038  0.42667771     0.79700
N208        N  0.93211888  0.23725465  0.45240814    -0.78600
C209        C  0.91624815  0.27064438  0.44900433     0.82200
N210        N  0.89452687  0.27672215  0.41960465    -0.78500
C211        C  0.88816726  0.25071832  0.39389387     0.82300
N212        N  0.90372366  0.21779865  0.39786386    -0.80200
C213        C  0.77789071  0.44489479  0.08095157     0.79700
N214        N  0.77591680  0.41823936  0.10604911    -0.78600
C215        C  0.74537017  0.41319917  0.12628541     0.82200
N216        N  0.71617339  0.43521958  0.12142394    -0.78500
C217        C  0.71673959  0.46190239  0.09599899     0.82300
N218        N  0.74794431  0.46644168  0.07557997    -0.80200
C219        C  0.57709281  0.08478474  0.23155295     0.79700
N220        N  0.60492677  0.10963849  0.23334657    -0.78600
C221        C  0.61409526  0.12700114  0.26461685     0.82200
N222        N  0.59445478  0.11991014  0.29497545    -0.78500
C223        C  0.56622878  0.09509938  0.29463339     0.82300
N224        N  0.55750810  0.07739568  0.26247429    -0.80200
O225        O  0.95233698  0.55752746  0.99598250    -0.80600
O226        O  0.05277085  0.56183542  0.01138302    -0.80600
O227        O  0.97222456  0.52068555  0.09528761    -0.80600
O228        O  0.01002703  0.54057235  0.94276309    -0.80600
O229        O  0.00946483  0.56271065  0.07313067    -0.80700
O230        O  0.95311027  0.52830696  0.92574586    -0.80600
O231        O  0.07520912  0.52390674  0.97287417    -0.80600
O232        O  0.92340224  0.52617562  0.03805378    -0.80600
C233        C  0.92413700  0.55260763  0.01533799     1.09100
C234        C  0.07965683  0.55243897  0.99232242     1.09000
C235        C  0.98696291  0.55199159  0.09698941     1.09100
C236        C  0.98416129  0.54273476  0.91885397     1.09000
O237        O  0.98332647  0.46496225  0.94646179    -0.80600
O238        O  0.03718108  0.49229063  0.09144477    -0.80700
O239        O  0.94499899  0.45200808  0.01674682    -0.80600
O240        O  0.04982129  0.45400883  0.99564273    -0.80600
O241        O  0.08107794  0.49102412  0.03210675    -0.80700
O242        O  0.91972830  0.48877904  0.98025075    -0.80600
O243        O  0.03793919  0.47548604  0.92363863    -0.80600
O244        O  0.99551100  0.45107251  0.07335323    -0.80600
Co245      Co  0.96992092  0.51293373  0.97280947     1.51500
Co246      Co  0.04248032  0.52669855  0.04996799     1.51700
Co247      Co  0.96127684  0.48767746  0.05357899     1.51600
Co248      Co  0.02682281  0.49533545  0.97114774     1.51500
O249        O  0.00057248  0.50588316  0.01874398    -1.42500
C250        C  0.00598301  0.46115935  0.91992869     1.09000
C251        C  0.02209712  0.46098570  0.09391157     1.09100
C252        C  0.91596185  0.46247664  0.00174169     1.09000
C253        C  0.07967009  0.46251413  0.01196729     1.09000
C254        C  0.21430099  0.03571199  0.41380553     0.79700
N255        N  0.23940955  0.03386456  0.44125037    -0.78600
C256        C  0.27053906  0.05493037  0.44121891     0.82200
N257        N  0.27608182  0.07834419  0.41324168    -0.78500
C258        C  0.25121091  0.08047562  0.38568995     0.82300
N259        N  0.22078260  0.05876956  0.38606554    -0.80200
C260        C  0.25785016  0.17988419  0.26560873     0.02700
C261        C  0.23055104  0.20639162  0.26531706    -0.13500
C262        C  0.22964160  0.23242623  0.23779881     0.00200
C263        C  0.25652534  0.23199455  0.21067460    -0.12000
C264        C  0.28383960  0.20539483  0.21060683     0.02600
C265        C  0.28452828  0.17940538  0.23824579    -0.11400
H266        H  0.21027454  0.20704713  0.28680693     0.08200
H267        H  0.25691066  0.25311305  0.19032330     0.05800
H268        H  0.30604785  0.15928169  0.23878394     0.05600
C269        C  0.08996181  0.39481435  0.21796202     0.79700
N270        N  0.08418364  0.41221931  0.25031276    -0.78600
C271        C  0.10166374  0.40109473  0.28094963     0.82200
N272        N  0.12424892  0.37217103  0.27910114    -0.78500
C273        C  0.13060145  0.35461372  0.24732586     0.82300
N274        N  0.11305204  0.36599164  0.21685172    -0.80200
C275        C  0.42554543  0.21427364  0.04896036     0.79700
N276        N  0.44316749  0.24731869  0.04979151    -0.78600
C277        C  0.43793189  0.27101644  0.07807800     0.82200
N278        N  0.41470366  0.26162588  0.10529644    -0.78500
C279        C  0.39763693  0.22859134  0.10504145     0.82300
N280        N  0.40308525  0.20537017  0.07688467    -0.80200
C281        C  0.79489805  0.25896518  0.74520397     0.02700
C282        C  0.76799856  0.25968139  0.77223524    -0.13500
C283        C  0.73946570  0.23365202  0.77218554     0.00200
C284        C  0.73777272  0.20678703  0.74479414    -0.12000
C285        C  0.76453531  0.20610881  0.71738543     0.02600
C286        C  0.79328087  0.23206899  0.71796680    -0.11400
H287        H  0.76911292  0.28066997  0.79317232     0.08200
H288        H  0.71560349  0.18672211  0.74464414     0.05800
H289        H  0.81422746  0.23151057  0.69712635     0.05600
C290        C  0.93071960  0.42590354  0.71976202     0.79700
N291        N  0.90767588  0.39653650  0.71990031    -0.78600
C292        C  0.90508843  0.37422673  0.74880000     0.82200
N293        N  0.92553808  0.38204867  0.77876305    -0.78500
C294        C  0.94892194  0.41126475  0.77980355     0.82300
N295        N  0.95134097  0.43341179  0.75024042    -0.80200
C296        C  0.58938844  0.28184578  0.92065818     0.79700
N297        N  0.61292187  0.27815039  0.89240921    -0.78600
C298        C  0.63375600  0.24811453  0.88846790     0.82200
N299        N  0.63128868  0.22161122  0.91378946    -0.78500
C300        C  0.60836994  0.22447022  0.94276168     0.82300
N301        N  0.58739719  0.25493266  0.94598944    -0.80200
C302        C  0.73788885  0.07211648  0.54934376     0.79700
N303        N  0.73847304  0.09679746  0.57716004    -0.78600
C304        C  0.76408542  0.09582198  0.60388149     0.82200
N305        N  0.79032038  0.07015802  0.60242532    -0.78500
C306        C  0.79120845  0.04510342  0.57498072     0.82300
N307        N  0.76450942  0.04596127  0.54842463    -0.80200
C308        C  0.72982399  0.78312584  0.26796328     0.02700
C309        C  0.70598589  0.78122477  0.23813270    -0.13500
C310        C  0.70927716  0.75296363  0.21259974     0.00200
C311        C  0.73648934  0.72669380  0.21690178    -0.12000
C312        C  0.76040057  0.72886982  0.24685859     0.02600
C313        C  0.75696408  0.75701299  0.27233226    -0.11400
H314        H  0.68477225  0.80142602  0.23495864     0.08200
H315        H  0.73905828  0.70481673  0.19711966     0.05800
H316        H  0.77542029  0.75859293  0.29558383     0.05600
C317        C  0.70944412  0.90882557  0.43969543     0.79700
N318        N  0.70628138  0.88992120  0.40798817    -0.78600
C319        C  0.73455297  0.88728739  0.38454213     0.82200
N320        N  0.76710268  0.90351019  0.39311117    -0.78500
C321        C  0.77164876  0.92252776  0.42461109     0.82300
N322        N  0.74251552  0.92553465  0.44793957    -0.80200
C323        C  0.92138811  0.59554539  0.22956331     0.79700
N324        N  0.89468531  0.62048264  0.23224328    -0.78600
C325        C  0.87393262  0.62347327  0.26232838     0.82200
N326        N  0.88052901  0.60167712  0.29105255    -0.78500
C327        C  0.90812706  0.57705960  0.28983537     0.82300
N328        N  0.92834463  0.57390968  0.25867825    -0.80200
C329        C  0.56912769  0.79010020  0.05440989     0.79700
N330        N  0.59840179  0.78693573  0.07718167    -0.78600
C331        C  0.60372185  0.75619895  0.09615521     0.82200
N332        N  0.57949836  0.72834325  0.09232897    -0.78500
C333        C  0.55009045  0.72989485  0.06969325     0.82300
N334        N  0.54482850  0.76125407  0.05035304    -0.80200
C335        C  0.23037065  0.74092021  0.27713901     0.02700
C336        C  0.25555399  0.77043374  0.27687148    -0.13500
C337        C  0.28021655  0.77471875  0.24784602     0.00200
C338        C  0.27981699  0.74914843  0.21924618    -0.12000
C339        C  0.25469681  0.71975178  0.21899924     0.02600
C340        C  0.23028153  0.71564318  0.24820184    -0.11400
H341        H  0.25529086  0.79052544  0.29863781     0.08200
H342        H  0.29881727  0.75242459  0.19687454     0.05800
H343        H  0.21094251  0.69289222  0.24825632     0.05600
C344        C  0.43131205  0.93444468  0.26374957     0.79700
N345        N  0.40778757  0.90559841  0.26678233    -0.78600
C346        C  0.38578374  0.89495817  0.23854094     0.82200
N347        N  0.38702887  0.91432870  0.20720661    -0.78500
C348        C  0.40999886  0.94376055  0.20382224     0.82300
N349        N  0.43212906  0.95356306  0.23238098    -0.80200
C350        C  0.08709845  0.69992446  0.43476162     0.79700
N351        N  0.11388346  0.70216349  0.40915820    -0.78600
C352        C  0.11707352  0.73161982  0.38753634     0.82200
N353        N  0.09380977  0.75972405  0.39237492    -0.78500
C354        C  0.06761338  0.75926626  0.41861177     0.82300
N355        N  0.06418083  0.72887113  0.43969202    -0.80200
C356        C  0.28286493  0.55618158  0.07643208     0.79700
N357        N  0.28378677  0.58335940  0.10189621    -0.78600
C358        C  0.25636828  0.60771392  0.10521396     0.82200
N359        N  0.22702728  0.60442455  0.08239751    -0.78500
C360        C  0.22451185  0.57770444  0.05650005     0.82300
N361        N  0.25285255  0.55348291  0.05360134    -0.80200
O362        O  0.99266231  0.91671618  0.53820857    -0.80600
O363        O  0.03592057  0.06556818  0.50787044    -0.80600
O364        O  0.05225317  0.97169925  0.54641521    -0.80600
O365        O  0.95538260  0.98532950  0.55782198    -0.80600
O366        O  0.08168710  0.00730920  0.50865148    -0.80700
O367        O  0.92655819  0.94602779  0.52448288    -0.80600
O368        O  0.00060760  0.04744796  0.55310021    -0.80600
O369        O  0.04775276  0.89932630  0.52279644    -0.80600
C370        C  0.01820371  0.89281215  0.53966496     1.09100
C371        C  0.02364739  0.06979070  0.53957087     1.09000
C372        C  0.08165691  0.98794668  0.53745896     1.09100
C373        C  0.92626519  0.96742269  0.55173691     1.09000
O374        O  0.94463115  0.96404061  0.45220829    -0.80600
O375        O  0.04825666  0.98483956  0.43830626    -0.80700
O376        O  0.01110210  0.91611230  0.46078147    -0.80600
O377        O  0.96593071  0.06364239  0.48635433    -0.80600
O378        O  0.00283699  0.04629668  0.44171861    -0.80700
O379        O  0.95784388  0.89303636  0.47685254    -0.80600
O380        O  0.91969498  0.00438821  0.48917325    -0.80600
O381        O  0.07521302  0.94911740  0.47533487    -0.80600
Co382      Co  0.97172139  0.94212545  0.49266106     1.51500
Co383      Co  0.03964564  0.02346380  0.47456871     1.51700
Co384      Co  0.02948857  0.94516393  0.50566125     1.51600
Co385      Co  0.96266421  0.02306579  0.52120089     1.51500
O386        O  0.00022126  0.99059840  0.49723882    -1.42500
C387        C  0.91688560  0.98235368  0.46200415     1.09000
C388        C  0.07636341  0.96686003  0.44621909     1.09100
C389        C  0.98817885  0.88911739  0.46018065     1.09000
C390        C  0.97942586  0.06817308  0.45501676     1.09000
C391        C  0.03102663  0.85715799  0.41944753    -0.20800
C392        C  0.00054515  0.85441214  0.44259065    -0.07300
C393        C  0.98933304  0.81929751  0.45402401     0.13500
C394        C  0.01097926  0.78877123  0.44487010    -0.20800
C395        C  0.04358010  0.79208803  0.42434593    -0.07300
C396        C  0.05290104  0.82719199  0.41062604     0.13500
C397        C  0.08686800  0.83474497  0.38826649    -0.24200
H398        H  0.03938734  0.88381949  0.40986590     0.14800
H399        H  0.00286931  0.76226520  0.45474996     0.14800
C400        C  0.95542317  0.81389174  0.47677804    -0.24100
H401        H  0.09025319  0.86408124  0.38183524     0.05000
H402        H  0.08491791  0.81996749  0.36190933     0.08300
H403        H  0.11189240  0.82673342  0.40348985     0.08300
H404        H  0.93096274  0.82362995  0.46172476     0.08300
H405        H  0.95813218  0.82919891  0.50277442     0.08300
H406        H  0.95067413  0.78479562  0.48336567     0.05000
C407        C  0.22519221  0.65724615  0.14017939    -0.20800
C408        C  0.25745991  0.63723087  0.13395934    -0.07300
C409        C  0.28929457  0.64637328  0.15520062     0.13500
C410        C  0.28737629  0.67378132  0.18206221    -0.20800
C411        C  0.25487979  0.69269563  0.18865771    -0.07300
C412        C  0.22360391  0.68494815  0.16674279     0.13500
C413        C  0.18840690  0.70602169  0.16969568    -0.24200
H414        H  0.20066885  0.65146995  0.12411434     0.14800
H415        H  0.31138293  0.68008033  0.19874550     0.14800
C416        C  0.32557468  0.62767520  0.15059200    -0.24100
H417        H  0.18152877  0.71769219  0.14283178     0.05000
H418        H  0.19022332  0.72901568  0.18935668     0.08300
H419        H  0.16565240  0.68746610  0.17800063     0.08300
H420        H  0.33494793  0.62984784  0.12202966     0.08300
H421        H  0.32248982  0.59885483  0.15878868     0.08300
H422        H  0.34753183  0.64002423  0.16809076     0.05000
C423        C  0.18259623  0.72684246  0.36829225    -0.20800
C424        C  0.14569273  0.73310644  0.35885511    -0.07300
C425        C  0.13676535  0.74030001  0.32216813     0.13500
C426        C  0.16500555  0.74266054  0.29630414    -0.20800
C427        C  0.20200216  0.73782089  0.30598525    -0.07300
C428        C  0.21086213  0.72913715  0.34229563     0.13500
C429        C  0.24990522  0.72135367  0.35339351    -0.24200
H430        H  0.18936943  0.72053553  0.39622355     0.14800
H431        H  0.15821487  0.74837913  0.26823344     0.14800
C432        C  0.09738993  0.74389129  0.30976547    -0.24100
H433        H  0.25186879  0.71390666  0.38250187     0.05000
H434        H  0.26763199  0.74576036  0.34914327     0.08300
H435        H  0.26046407  0.69831591  0.33688830     0.08300
H436        H  0.08476881  0.76798769  0.32270834     0.08300
H437        H  0.08144166  0.71903401  0.31705271     0.08300
H438        H  0.09534551  0.74728266  0.27987305     0.05000
C439        C  0.33842415  0.80571195  0.26759881    -0.20800
C440        C  0.30616182  0.80628067  0.24662095    -0.07300
C441        C  0.29998130  0.83591122  0.22340565     0.13500
C442        C  0.32637717  0.86418180  0.22145833    -0.20800
C443        C  0.35900826  0.86385969  0.24229748    -0.07300
C444        C  0.36498886  0.83395717  0.26578303     0.13500
C445        C  0.39966164  0.83062112  0.28814850    -0.24200
H446        H  0.34307429  0.78265503  0.28509815     0.14800
H447        H  0.32123280  0.88688607  0.20366710     0.14800
C448        C  0.26526133  0.83789538  0.20096163    -0.24100
H449        H  0.40062630  0.80424294  0.30257599     0.05000
H450        H  0.40107296  0.85249356  0.30915207     0.08300
H451        H  0.42413258  0.83227859  0.27027236     0.08300
H452        H  0.24093087  0.83727616  0.21907834     0.08300
H453        H  0.26355252  0.81444562  0.18173336     0.08300
H454        H  0.26432741  0.86327201  0.18486575     0.05000
C455        C  0.81215556  0.97463002  0.44535058    -0.20800
C456        C  0.80880213  0.93847407  0.43310056    -0.07300
C457        C  0.84133384  0.91843632  0.42733936     0.13500
C458        C  0.87580271  0.93480970  0.43453338    -0.20800
C459        C  0.87944039  0.97061497  0.44828521    -0.07300
C460        C  0.84677436  0.99088541  0.45351712     0.13500
C461        C  0.84780313  0.02972983  0.46700446    -0.24200
H462        H  0.78744050  0.99027091  0.44819888     0.14800
H463        H  0.90017008  0.91856798  0.43082184     0.14800
C464        C  0.84021248  0.87903204  0.41518025    -0.24100
H465        H  0.81994551  0.04176335  0.46744977     0.05000
H466        H  0.86506531  0.04631803  0.44868202     0.08300
H467        H  0.85881296  0.03139696  0.49512385     0.08300
H468        H  0.82982154  0.87664094  0.38686544     0.08300
H469        H  0.82227331  0.86296155  0.43354891     0.08300
H470        H  0.86795978  0.86672328  0.41566496     0.05000
C471        C  0.69371021  0.76642381  0.14882772    -0.20800
C472        C  0.68346149  0.75085934  0.18189522    -0.07300
C473        C  0.64793362  0.73585224  0.18618963     0.13500
C474        C  0.62291643  0.73744948  0.15731710    -0.20800
C475        C  0.63245430  0.75423684  0.12447275    -0.07300
C476        C  0.66849594  0.76847541  0.11992466     0.13500
C477        C  0.68076349  0.78514449  0.08470531    -0.24200
H478        H  0.72125512  0.77775087  0.14600063     0.14800
H479        H  0.59534511  0.72640699  0.16083472     0.14800
C480        C  0.63635471  0.71856428  0.22137032    -0.24100
H481        H  0.71048539  0.79266877  0.08539205     0.05000
H482        H  0.66520297  0.81032354  0.07943439     0.08300
H483        H  0.67620179  0.76538721  0.06202079     0.08300
H484        H  0.63797087  0.73897773  0.24380374     0.08300
H485        H  0.65480765  0.69561220  0.22767626     0.08300
H486        H  0.60765149  0.70778710  0.21993092     0.05000
C487        C  0.78057947  0.66791790  0.26556202    -0.20800
C488        C  0.78962038  0.70221816  0.25163124    -0.07300
C489        C  0.82643398  0.71117516  0.24343447     0.13500
C490        C  0.85357543  0.68526338  0.24903109    -0.20800
C491        C  0.84472402  0.65069077  0.26261423    -0.07300
C492        C  0.80780609  0.64182044  0.27109293     0.13500
C493        C  0.79672782  0.60455664  0.28418559    -0.24200
H494        H  0.75209947  0.66153649  0.27181759     0.14800
H495        H  0.88186863  0.69174741  0.24207364     0.14800
C496        C  0.83691214  0.74768407  0.22792991    -0.24100
H497        H  0.76648297  0.60201597  0.28790475     0.05000
H498        H  0.81002814  0.59924222  0.31073170     0.08300
H499        H  0.80514289  0.58355656  0.26408375     0.08300
H500        H  0.82999035  0.76971957  0.24747837     0.08300
H501        H  0.82173142  0.75187300  0.20207421     0.08300
H502        H  0.86685427  0.74974993  0.22221721     0.05000
C503        C  0.74750320  0.84390747  0.29130745    -0.20800
C504        C  0.72651802  0.81201471  0.29532564    -0.07300
C505        C  0.70572291  0.80643502  0.32691163     0.13500
C506        C  0.70785604  0.83233942  0.35493481    -0.20800
C507        C  0.73070112  0.86343411  0.35216630    -0.07300
C508        C  0.74984854  0.86992782  0.31937454     0.13500
C509        C  0.77230579  0.90415082  0.31337551    -0.24200
H510        H  0.76304598  0.84781120  0.26655576     0.14800
H511        H  0.69275570  0.82740417  0.37975269     0.14800
C512        C  0.68215470  0.77267528  0.33135285    -0.24100
H513        H  0.78250692  0.90574136  0.28503459     0.05000
H514        H  0.79675982  0.90486252  0.33153238     0.08300
H515        H  0.75513590  0.92840070  0.31857974     0.08300
H516        H  0.69956939  0.74810944  0.33006861     0.08300
H517        H  0.66121166  0.77108090  0.30928021     0.08300
H518        H  0.66754281  0.77268308  0.35777720     0.05000
C519        C  0.85744443  0.96752471  0.55056961    -0.20800
C520        C  0.89044630  0.98083357  0.56625559    -0.07300
C521        C  0.88850438  0.01111690  0.59040289     0.13500
C522        C  0.85551689  0.03035641  0.59316093    -0.20800
C523        C  0.82349465  0.01982885  0.57370793    -0.07300
C524        C  0.82399423  0.98605584  0.55474559     0.13500
C525        C  0.78962618  0.96861862  0.53968925    -0.24200
H526        H  0.85801424  0.94334413  0.53345154     0.14800
H527        H  0.85548046  0.05486777  0.60978604     0.14800
C528        C  0.92097132  0.02427426  0.61297103    -0.24100
H529        H  0.79454571  0.94068271  0.52909530     0.05000
H530        H  0.77948095  0.98468628  0.51690478     0.08300
H531        H  0.76850145  0.96683260  0.56128920     0.08300
H532        H  0.94185038  0.03761495  0.59558787     0.08300
H533        H  0.93320945  0.00105138  0.62759457     0.08300
H534        H  0.91276562  0.04475215  0.63371343     0.05000
C535        C  0.76914173  0.14164212  0.69737354    -0.20800
C536        C  0.76290210  0.17800056  0.68828843    -0.07300
C537        C  0.75578852  0.18701992  0.65173780     0.13500
C538        C  0.75602496  0.15951762  0.62497779    -0.20800
C539        C  0.76366664  0.12326431  0.63373177    -0.07300
C540        C  0.76978879  0.11411572  0.67056645     0.13500
C541        C  0.77588065  0.07538438  0.68204582    -0.24200
H542        H  0.77408433  0.13490270  0.72557284     0.14800
H543        H  0.75081260  0.16649207  0.59688964     0.14800
C544        C  0.74730104  0.22548683  0.64096457    -0.24100
H545        H  0.77763017  0.07305209  0.71206916     0.05000
H546        H  0.80210544  0.06529680  0.67072155     0.08300
H547        H  0.75264607  0.05777538  0.67237801     0.08300
H548        H  0.77139357  0.24358063  0.64657052     0.08300
H549        H  0.72324563  0.23535800  0.65650568     0.08300
H550        H  0.74068103  0.22736464  0.61155185     0.05000
C551        C  0.68096585  0.25759164  0.79605647    -0.20800
C552        C  0.71135293  0.23516730  0.80089745    -0.07300
C553        C  0.71585069  0.21654093  0.83379424     0.13500
C554        C  0.68992293  0.22108913  0.86150829    -0.20800
C555        C  0.65960799  0.24420798  0.85734736    -0.07300
C556        C  0.65494223  0.26244479  0.82373366     0.13500
C557        C  0.62261235  0.28659201  0.81614207    -0.24200
H558        H  0.67796243  0.27181477  0.77057100     0.14800
H559        H  0.69388846  0.20695714  0.88688967     0.14800
C560        C  0.74836130  0.19227499  0.83975853    -0.24100
H561        H  0.62244618  0.29622448  0.78763788     0.05000
H562        H  0.62392443  0.31115006  0.83394386     0.08300
H563        H  0.59645991  0.27130876  0.82058122     0.08300
H564        H  0.77431186  0.20840590  0.83745772     0.08300
H565        H  0.74816551  0.17010386  0.81900846     0.08300
H566        H  0.74781674  0.17966031  0.86704132     0.05000
C567        C  0.85560111  0.28330141  0.76579219    -0.20800
C568        C  0.82377849  0.28753720  0.74471890    -0.07300
C569        C  0.81906087  0.31952609  0.72463066     0.13500
C570        C  0.84607986  0.34706918  0.72660597    -0.20800
C571        C  0.87798465  0.34344386  0.74807649    -0.07300
C572        C  0.88294816  0.31076225  0.76767288     0.13500
C573        C  0.91711046  0.30401686  0.78989662    -0.24200
H574        H  0.85888278  0.25843467  0.78100482     0.14800
H575        H  0.84176339  0.37194251  0.71177064     0.14800
C576        C  0.78524414  0.32474674  0.70145983    -0.24100
H577        H  0.91724838  0.27601457  0.80099219     0.05000
H578        H  0.91860778  0.32321257  0.81335121     0.08300
H579        H  0.94191549  0.30735618  0.77269576     0.08300
H580        H  0.76024076  0.32340910  0.71862366     0.08300
H581        H  0.78350445  0.30305338  0.68027816     0.08300
H582        H  0.78578062  0.35146909  0.68762142     0.05000
C583        C  0.34921576  0.21661960  0.19533185    -0.20800
C584        C  0.31354805  0.20717666  0.18346942    -0.07300
C585        C  0.30649451  0.20173024  0.14603230     0.13500
C586        C  0.33494336  0.20779658  0.12114644    -0.20800
C587        C  0.37005448  0.21947943  0.13284598    -0.07300
C588        C  0.37764281  0.22287469  0.17041639     0.13500
C589        C  0.41573138  0.23227322  0.18432359    -0.24200
H590        H  0.35453380  0.22012443  0.22418203     0.14800
H591        H  0.32943915  0.20451828  0.09230513     0.14800
C592        C  0.26917429  0.18922513  0.13234072    -0.24100
H593        H  0.41709143  0.23188561  0.21447396     0.05000
H594        H  0.42403100  0.25995552  0.17549843     0.08300
H595        H  0.43562619  0.21214678  0.17373184     0.08300
H596        H  0.24820398  0.20992607  0.13873918     0.08300
H597        H  0.26137790  0.16310890  0.14533784     0.08300
H598        H  0.26900457  0.18482335  0.10243406     0.05000
C599        C  0.20492101  0.28547028  0.27032112    -0.20800
C600        C  0.20310174  0.26247563  0.23981222    -0.07300
C601        C  0.17720797  0.26936222  0.21205228     0.13500
C602        C  0.15429152  0.29962627  0.21532056    -0.20800
C603        C  0.15596726  0.32300910  0.24590613    -0.07300
C604        C  0.18188033  0.31553088  0.27396665     0.13500
C605        C  0.18660946  0.33902745  0.30764168    -0.24200
H606        H  0.22506846  0.28001888  0.29136061     0.14800
H607        H  0.13448959  0.30450974  0.19384511     0.14800
C608        C  0.17221171  0.24492325  0.17916141    -0.24100
H609        H  0.20959102  0.32977619  0.32514058     0.05000
H610        H  0.16131284  0.33774383  0.32436290     0.08300
H611        H  0.19296857  0.36756120  0.29992759     0.08300
H612        H  0.14315700  0.23519823  0.17755164     0.08300
H613        H  0.18975112  0.22053006  0.17984691     0.08300
H614        H  0.17874427  0.26044041  0.15423688     0.05000
C615        C  0.17931168  0.98068427  0.43373951    -0.20800
C616        C  0.17951254  0.01385383  0.41502142    -0.07300
C617        C  0.14600118  0.02632923  0.39993229     0.13500
C618        C  0.11323779  0.00721468  0.40695455    -0.20800
C619        C  0.11239034  0.97662166  0.42953457    -0.07300
C620        C  0.14630015  0.96175021  0.44108827     0.13500
C621        C  0.14826337  0.92652571  0.46169648    -0.24200
H622        H  0.20503344  0.97020349  0.44400852     0.14800
H623        H  0.08761132  0.01819121  0.39697500     0.14800
C624        C  0.14351211  0.06103604  0.37847726    -0.24100
H625        H  0.17713302  0.91756055  0.46517340     0.05000
H626        H  0.13296795  0.90472665  0.44658237     0.08300
H627        H  0.13670136  0.92971516  0.48930287     0.08300
H628        H  0.15944960  0.05849045  0.35296527     0.08300
H629        H  0.15408069  0.08442279  0.39503121     0.08300
H630        H  0.11472133  0.06719417  0.37060041     0.05000
C631        C  0.27078216  0.16535516  0.32987164    -0.20800
C632        C  0.25882085  0.15345226  0.29542768    -0.07300
C633        C  0.24569780  0.11747933  0.29048829     0.13500
C634        C  0.24480359  0.09406501  0.32028434    -0.20800
C635        C  0.25650932  0.10581765  0.35502922    -0.07300
C636        C  0.26978147  0.14202670  0.35984966     0.13500
C637        C  0.28121439  0.15690583  0.39658368    -0.24200
H638        H  0.28031280  0.19329136  0.33337125     0.14800
H639        H  0.23432920  0.06648805  0.31651558     0.14800
C640        C  0.23145104  0.10423588  0.25408488    -0.24100
H641        H  0.28850009  0.18634952  0.39551950     0.05000
H642        H  0.30583338  0.14243716  0.40646704     0.08300
H643        H  0.25829885  0.15355020  0.41615671     0.08300
H644        H  0.25373682  0.10582437  0.23364360     0.08300
H645        H  0.20820126  0.12140100  0.24525077     0.08300
H646        H  0.22143664  0.07555371  0.25512576     0.05000
C647        C  0.01639967  0.44369534  0.85438535    -0.20800
C648        C  0.99328053  0.44317944  0.88511721    -0.07300
C649        C  0.95675047  0.42910812  0.88062742     0.13500
C650        C  0.94403655  0.41884311  0.84600737    -0.20800
C651        C  0.96631122  0.42132747  0.81525636    -0.07300
C652        C  0.00354044  0.43216881  0.81969749     0.13500
C653        C  0.03010298  0.42952512  0.78855515    -0.24200
H654        H  0.04454825  0.45346563  0.85734680     0.14800
H655        H  0.91569125  0.40966149  0.84273725     0.14800
C656        C  0.92983545  0.42553087  0.91146715    -0.24100
H657        H  0.05817926  0.43902716  0.79657981     0.05000
H658        H  0.02084202  0.44606897  0.76540776     0.08300
H659        H  0.03175912  0.40072353  0.77932347     0.08300
H660        H  0.92187617  0.45296978  0.92100574     0.08300
H661        H  0.94209003  0.40963693  0.93386773     0.08300
H662        H  0.90401965  0.41115437  0.90301057     0.05000
C663        C  0.97720047  0.57758847  0.19486617    -0.20800
C664        C  0.94131763  0.59133361  0.19448580    -0.07300
C665        C  0.92471533  0.59947619  0.16031935     0.13500
C666        C  0.94315798  0.59069638  0.12812107    -0.20800
C667        C  0.97750884  0.57428032  0.12878237    -0.07300
C668        C  0.99551434  0.56908692  0.16239718     0.13500
C669        C  0.03342103  0.55310101  0.16405954    -0.24200
H670        H  0.99052219  0.57231017  0.22066227     0.14800
H671        H  0.92938876  0.59394490  0.10214231     0.14800
C672        C  0.88661167  0.61502366  0.15675059    -0.24100
H673        H  0.04394368  0.55185615  0.19240733     0.05000
H674        H  0.05281911  0.57013180  0.14810510     0.08300
H675        H  0.03289965  0.52503416  0.15281228     0.08300
H676        H  0.88610712  0.64289967  0.16866077     0.08300
H677        H  0.86622138  0.59709286  0.17041165     0.08300
H678        H  0.87782772  0.61732544  0.12791365     0.05000
C679        C  0.06975975  0.42168144  0.11978116    -0.20800
C680        C  0.03515919  0.43745904  0.12336572    -0.07300
C681        C  0.01731112  0.43663878  0.15729559     0.13500
C682        C  0.03541042  0.42157632  0.18735897    -0.20800
C683        C  0.07097756  0.40718641  0.18434268    -0.07300
C684        C  0.08797285  0.40645931  0.14966792     0.13500
C685        C  0.12604057  0.39165012  0.14400573    -0.24200
H686        H  0.08307536  0.42243036  0.09356306     0.14800
H687        H  0.02196428  0.42172752  0.21357123     0.14800
C688        C  0.97970293  0.45273510  0.16207282    -0.24100
H689        H  0.13566170  0.39556758  0.11571114     0.05000
H690        H  0.12604597  0.36195376  0.14918129     0.08300
H691        H  0.14596700  0.40585503  0.16245214     0.08300
H692        H  0.95980689  0.43896668  0.14327631     0.08300
H693        H  0.98065127  0.48225205  0.15614330     0.08300
H694        H  0.96949258  0.44943567  0.19024815     0.05000
C695        C  0.14809756  0.54751498  0.98795634    -0.20800
C696        C  0.11766847  0.56627961  0.00171539    -0.07300
C697        C  0.12433014  0.59331606  0.02891014     0.13500
C698        C  0.15961200  0.59701707  0.04458994    -0.20800
C699        C  0.18932764  0.57497716  0.03406023    -0.07300
C700        C  0.18357384  0.55166434  0.00340911     0.13500
C701        C  0.21381380  0.52969644  0.98738399    -0.24200
H702        H  0.14375832  0.52754284  0.96640138     0.14800
H703        H  0.16327051  0.61658228  0.06656660     0.14800
C704        C  0.09452818  0.61810501  0.04257897    -0.24100
H705        H  0.20533417  0.51573610  0.96168003     0.05000
H706        H  0.22056484  0.50843525  0.00707742     0.08300
H707        H  0.23795627  0.54746682  0.98139647     0.08300
H708        H  0.07433733  0.60263350  0.05904380     0.08300
H709        H  0.08054114  0.63110723  0.01926960     0.08300
H710        H  0.10585287  0.64024146  0.06035136     0.05000
C711        C  0.81216157  0.45476492  0.02242247    -0.20800
C712        C  0.81296998  0.44974244  0.06027191    -0.07300
C713        C  0.84771145  0.44762915  0.07787245     0.13500
C714        C  0.88009612  0.44964902  0.05735577    -0.20800
C715        C  0.87959902  0.45514722  0.01959757    -0.07300
C716        C  0.84495643  0.45816879  0.00199324     0.13500
C717        C  0.84229502  0.46457776  0.96176050    -0.24200
H718        H  0.78571472  0.45607181  0.00877405     0.14800
H719        H  0.90630506  0.44844525  0.07147546     0.14800
C720        C  0.85130846  0.44497348  0.11867029    -0.24100
H721        H  0.81321628  0.46495963  0.95230417     0.05000
H722        H  0.85648125  0.44249289  0.94685462     0.08300
H723        H  0.85504114  0.49124943  0.95495815     0.08300
H724        H  0.84099510  0.41813914  0.12803711     0.08300
H725        H  0.83567060  0.46715097  0.13195078     0.08300
H726        H  0.88041866  0.44764470  0.12785963     0.05000
C727        C  0.97833837  0.16785823  0.43175284    -0.20800
C728        C  0.94020048  0.17336763  0.43027785    -0.07300
C729        C  0.91609191  0.14274296  0.43018153     0.13500
C730        C  0.93058263  0.10774423  0.43334016    -0.20800
C731        C  0.96846329  0.10212439  0.43684676    -0.07300
C732        C  0.99278139  0.13254260  0.43493951     0.13500
C733        C  0.03379109  0.12810792  0.43804613    -0.24200
H734        H  0.99680538  0.19126989  0.43096865     0.14800
H735        H  0.91208319  0.08462272  0.43556192     0.14800
C736        C  0.87482327  0.14680322  0.42915272    -0.24100
H737        H  0.04873962  0.15445047  0.43477337     0.05000
H738        H  0.04337815  0.10900777  0.41663610     0.08300
H739        H  0.04099580  0.11745295  0.46512717     0.08300
H740        H  0.86608134  0.15846775  0.40287861     0.08300
H741        H  0.86602470  0.16483844  0.45179927     0.08300
H742        H  0.86025165  0.12020059  0.43201690     0.05000
C743        C  0.63725400  0.18756133  0.28548556    -0.20800
C744        C  0.64285265  0.15597789  0.26446962    -0.07300
C745        C  0.67479775  0.15361669  0.24257249     0.13500
C746        C  0.69930685  0.18342268  0.24126158    -0.20800
C747        C  0.69283372  0.21521707  0.26131429    -0.07300
C748        C  0.66197498  0.21718107  0.28419837     0.13500
C749        C  0.65529737  0.25053867  0.30726157    -0.24200
H750        H  0.61303440  0.18942216  0.30242180     0.14800
H751        H  0.72384280  0.18190641  0.22470998     0.14800
C752        C  0.68411611  0.11951524  0.22153763    -0.24100
H753        H  0.62983813  0.24767439  0.32360586     0.05000
H754        H  0.65244466  0.27466648  0.28960813     0.08300
H755        H  0.67880858  0.25516231  0.32624924     0.08300
H756        H  0.66404820  0.11476561  0.19911343     0.08300
H757        H  0.68404699  0.09580335  0.24000196     0.08300
H758        H  0.71182293  0.12155215  0.20905032     0.05000
C759        C  0.75173233  0.32117982  0.17191145    -0.20800
C760        C  0.74286563  0.33029612  0.20783830    -0.07300
C761        C  0.73405414  0.36666427  0.21681995     0.13500
C762        C  0.73444269  0.39303423  0.18947822    -0.20800
C763        C  0.74415612  0.38408440  0.15366502    -0.07300
C764        C  0.75284880  0.34765888  0.14474291     0.13500
C765        C  0.76251949  0.33633991  0.10651871    -0.24200
H766        H  0.75846914  0.29323465  0.16527055     0.14800
H767        H  0.72775556  0.42094848  0.19632435     0.14800
C768        C  0.72388898  0.37851585  0.25475452    -0.24100
H769        H  0.76642070  0.30647409  0.10412024     0.05000
H770        H  0.78861258  0.34981847  0.09820425     0.08300
H771        H  0.74005786  0.34391782  0.08759082     0.08300
H772        H  0.72328277  0.35579146  0.27430913     0.08300
H773        H  0.69609307  0.39068542  0.25435833     0.08300
H774        H  0.74410349  0.39929653  0.26479354     0.05000
C775        C  0.83384636  0.24377023  0.30485752    -0.20800
C776        C  0.80727814  0.27031669  0.31082636    -0.07300
C777        C  0.80837530  0.29157971  0.34281832     0.13500
C778        C  0.83581971  0.28520333  0.36873598    -0.20800
C779        C  0.86191840  0.25760107  0.36371104    -0.07300
C780        C  0.86125898  0.23702356  0.33077300     0.13500
C781        C  0.88906721  0.20810016  0.32217763    -0.24200
H782        H  0.83243691  0.22756809  0.28006763     0.14800
H783        H  0.83592147  0.30113406  0.39368214     0.14800
C784        C  0.77971081  0.31992497  0.35025025    -0.24100
H785        H  0.88570830  0.19727062  0.29403681     0.05000
H786        H  0.88556875  0.18470557  0.34069997     0.08300
H787        H  0.91737414  0.21968682  0.32469461     0.08300
H788        H  0.75192029  0.30692973  0.35036279     0.08300
H789        H  0.78068520  0.34100281  0.32888403     0.08300
H790        H  0.78423092  0.33368039  0.37696153     0.05000
C791        C  0.98122436  0.53967358  0.85152477    -0.20800
C792        C  0.99301379  0.55850881  0.88303833    -0.07300
C793        C  0.02052573  0.58574276  0.87993858     0.13500
C794        C  0.03915501  0.58967569  0.84705345    -0.20800
C795        C  0.03077638  0.56772971  0.81628384    -0.07300
C796        C  0.99934687  0.54429852  0.81801198     0.13500
C797        C  0.98474603  0.52377532  0.78528253    -0.24200
H798        H  0.95959104  0.51917692  0.85368603     0.14800
H799        H  0.06142090  0.60958572  0.84624346     0.14800
C800        C  0.03170440  0.61054529  0.91116407    -0.24100
H801        H  0.95936906  0.50788001  0.79156694     0.05000
H802        H  0.00544241  0.50436254  0.77545146     0.08300
H803        H  0.97796606  0.54321962  0.76343942     0.08300
H804        H  0.06047272  0.60486366  0.91948546     0.08300
H805        H  0.01347604  0.60762310  0.93504071     0.08300
H806        H  0.03006097  0.63933193  0.90245966     0.05000
C807        C  0.18356990  0.96639603  0.55353701    -0.20800
C808        C  0.18032116  0.93355389  0.57286289    -0.07300
C809        C  0.14473336  0.92313993  0.58543956     0.13500
C810        C  0.11424027  0.94436789  0.57672899    -0.20800
C811        C  0.11687903  0.97510445  0.55435854    -0.07300
C812        C  0.15254166  0.98723409  0.54407144     0.13500
C813        C  0.15838465  0.02200668  0.52337683    -0.24200
H814        H  0.21058106  0.97557207  0.54520150     0.14800
H815        H  0.08741216  0.93516555  0.58583827     0.14800
C816        C  0.13735419  0.88891852  0.60678492    -0.24100
H817        H  0.18807760  0.02870122  0.52021135     0.05000
H818        H  0.14549324  0.04495471  0.53821844     0.08300
H819        H  0.14637240  0.01958154  0.49572966     0.08300
H820        H  0.15124846  0.89095014  0.63362595     0.08300
H821        H  0.14683842  0.86472299  0.59132332     0.08300
H822        H  0.10757983  0.88449144  0.61219881     0.05000
C823        C  0.13236236  0.65729421  0.77725137    -0.20800
C824        C  0.14153130  0.62282562  0.76341471    -0.07300
C825        C  0.17795823  0.61657588  0.75152616     0.13500
C826        C  0.20373766  0.64544348  0.75254265    -0.20800
C827        C  0.19385785  0.68009727  0.76500207    -0.07300
C828        C  0.15805914  0.68603190  0.77802017     0.13500
C829        C  0.14700848  0.72273783  0.79265609    -0.24200
H830        H  0.10459468  0.66210929  0.78659718     0.14800
H831        H  0.23154003  0.64121158  0.74298681     0.14800
C832        C  0.19019173  0.57955656  0.73875825    -0.24100
H833        H  0.11814627  0.72247960  0.80244293     0.05000
H834        H  0.14937043  0.74345578  0.77104724     0.08300
H835        H  0.16526233  0.73074563  0.81578080     0.08300
H836        H  0.17577689  0.57162655  0.71320448     0.08300
H837        H  0.18430286  0.55906842  0.75999097     0.08300
H838        H  0.22020541  0.57923662  0.73319614     0.05000
C839        C  0.21724359  0.84109235  0.66954360    -0.20800
C840        C  0.24278456  0.83651836  0.64124553    -0.07300
C841        C  0.26753503  0.80686000  0.64288988     0.13500
C842        C  0.26677959  0.78396228  0.67311251    -0.20800
C843        C  0.24168807  0.78921171  0.70122550    -0.07300
C844        C  0.21626327  0.81764726  0.69933848     0.13500
C845        C  0.18856855  0.82356579  0.72905468    -0.24200
H846        H  0.19835489  0.86357161  0.66888948     0.14800
H847        H  0.28585087  0.76159736  0.67487158     0.14800
C848        C  0.29420556  0.79803625  0.61287882    -0.24100
H849        H  0.17094649  0.84737125  0.72357042     0.05000
H850        H  0.20306784  0.82841977  0.75534114     0.08300
H851        H  0.17039022  0.79916173  0.73132628     0.08300
H852        H  0.31578664  0.81952647  0.61105597     0.08300
H853        H  0.27921583  0.79518113  0.58660980     0.08300
H854        H  0.30859068  0.77203903  0.61775892     0.05000
C855        C  0.33532260  0.72645950  0.80776782    -0.20800
C856        C  0.30411224  0.74760368  0.81319348    -0.07300
C857        C  0.30317810  0.77286447  0.84220676     0.13500
C858        C  0.33381677  0.77641348  0.86538069    -0.20800
C859        C  0.36535020  0.75518876  0.86021967    -0.07300
C860        C  0.36608556  0.72989873  0.83078254     0.13500
C861        C  0.39938396  0.70730192  0.82238803    -0.24200
H862        H  0.33570003  0.70744260  0.78503343     0.14800
H863        H  0.33286759  0.79555155  0.88796518     0.14800
C864        C  0.26972669  0.79572369  0.84885266    -0.24100
H865        H  0.39592439  0.69168282  0.79655047     0.05000
H866        H  0.40395306  0.68720051  0.84415822     0.08300
H867        H  0.42403081  0.72526695  0.81963476     0.08300
H868        H  0.24537877  0.77775374  0.85338550     0.08300
H869        H  0.26445725  0.81313602  0.82497135     0.08300
H870        H  0.27334404  0.81375691  0.87306952     0.05000
C871        C  0.56716046  0.89260411  0.03899645    -0.20800
C872        C  0.56103482  0.89511296  0.00136165    -0.07300
C873        C  0.55552291  0.86219646  0.98118942     0.13500
C874        C  0.55745381  0.82821947  0.99899324    -0.20800
C875        C  0.56374691  0.82611431  0.03662817    -0.07300
C876        C  0.56804021  0.85904808  0.05683317     0.13500
C877        C  0.57213830  0.85942007  0.09771958    -0.24200
H878        H  0.57013345  0.91732885  0.05513854     0.14800
H879        H  0.55440707  0.80315863  0.98338892     0.14800
C880        C  0.54796819  0.86247425  0.94092630    -0.24100
H881        H  0.57074687  0.88743834  0.10924797     0.05000
H882        H  0.59918750  0.84842966  0.10584369     0.08300
H883        H  0.54959363  0.84306628  0.11003601     0.08300
H884        H  0.57015766  0.87783909  0.92689467     0.08300
H885        H  0.52100185  0.87516760  0.93543704     0.08300
H886        H  0.54674076  0.83447308  0.92923913     0.05000
C887        C  0.42014761  0.86325062  0.93033369    -0.20800
C888        C  0.43391467  0.83236181  0.94804657    -0.07300
C889        C  0.45065342  0.83765687  0.98254073     0.13500
C890        C  0.45621059  0.87298156  0.99648432    -0.20800
C891        C  0.44607373  0.90399630  0.97696884    -0.07300
C892        C  0.42566703  0.89877837  0.94428684     0.13500
C893        C  0.40969183  0.93004741  0.92350870    -0.24200
H894        H  0.40584317  0.85986558  0.90458900     0.14800
H895        H  0.47067928  0.87625837  0.02217016     0.14800
C896        C  0.46286151  0.80651994  0.00522018    -0.24100
H897        H  0.39136555  0.92040800  0.90102797     0.05000
H898        H  0.43186642  0.94653182  0.91104776     0.08300
H899        H  0.39308563  0.94727247  0.94197722     0.08300
H900        H  0.48567599  0.79258108  0.99127936     0.08300
H901        H  0.43912067  0.78771865  0.00942825     0.08300
H902        H  0.47327603  0.81548880  0.03236290     0.05000
C903        C  0.55267329  0.02100568  0.15053937    -0.20800
C904        C  0.55726303  0.04499606  0.12123809    -0.07300
C905        C  0.56746343  0.08151656  0.12881273     0.13500
C906        C  0.57278258  0.09313611  0.16491093    -0.20800
C907        C  0.56772156  0.06960982  0.19453193    -0.07300
C908        C  0.55777237  0.03282739  0.18706224     0.13500
C909        C  0.55295372  0.00590028  0.21719553    -0.24200
H910        H  0.54355778  0.99327615  0.14490564     0.14800
H911        H  0.58050819  0.12135364  0.17002431     0.14800
C912        C  0.57235721  0.10865203  0.09876038    -0.24100
H913        H  0.54662665  0.97809826  0.20651280     0.05000
H914        H  0.52978187  0.01415101  0.23469815     0.08300
H915        H  0.57859086  0.00470515  0.23367772     0.08300
H916        H  0.58210595  0.13561743  0.10918800     0.08300
H917        H  0.54568587  0.11276184  0.08475765     0.08300
H918        H  0.59294306  0.09853970  0.07904468     0.05000
C919        C  0.43288856  0.01380975  0.13046369    -0.20800
C920        C  0.42729294  0.99261000  0.09894449    -0.07300
C921        C  0.40990591  0.95825635  0.10187507     0.13500
C922        C  0.40199763  0.94431185  0.13641360    -0.20800
C923        C  0.41220055  0.96341167  0.16841951    -0.07300
C924        C  0.42592532  0.99970078  0.16520604     0.13500
C925        C  0.43444545  0.02363718  0.19784588    -0.24200
H926        H  0.44659274  0.04010973  0.12812548     0.14800
H927        H  0.39039568  0.91706242  0.13824582     0.14800
C928        C  0.40212071  0.93521590  0.06857136    -0.24100
H929        H  0.44156763  0.05193886  0.18983771     0.05000
H930        H  0.45846989  0.01313732  0.21298668     0.08300
H931        H  0.41006374  0.02485980  0.21584454     0.08300
H932        H  0.42832649  0.92802939  0.05527977     0.08300
H933        H  0.38474377  0.95051501  0.04926804     0.08300
H934        H  0.38744550  0.90946202  0.07534817     0.05000
C935        C  0.46255510  0.19098629  0.99627794    -0.20800
C936        C  0.43148799  0.18734141  0.01880564    -0.07300
C937        C  0.40752964  0.15684227  0.01277903     0.13500
C938        C  0.41906780  0.12818272  0.99041254    -0.20800
C939        C  0.45360575  0.12893539  0.97363935    -0.07300
C940        C  0.47320565  0.16249338  0.97274351     0.13500
C941        C  0.50439031  0.16879061  0.94663809    -0.24200
H942        H  0.47939039  0.21551867  0.99799582     0.14800
H943        H  0.40235254  0.10350993  0.98878429     0.14800
C944        C  0.37010017  0.15320378  0.03012250    -0.24100
H945        H  0.51491868  0.19722464  0.94824666     0.05000
H946        H  0.49449176  0.16360216  0.91844272     0.08300
H947        H  0.52778753  0.15086229  0.95227146     0.08300
H948        H  0.35420714  0.17840965  0.02583617     0.08300
H949        H  0.37287538  0.14753515  0.05953504     0.08300
H950        H  0.35379205  0.13024196  0.01804515     0.05000
C951        C  0.57010265  0.15745372  0.01296623    -0.20800
C952        C  0.58328563  0.12446991  0.99865004    -0.07300
C953        C  0.61321960  0.12639370  0.97408681     0.13500
C954        C  0.62265632  0.16002236  0.95853850    -0.20800
C955        C  0.60408517  0.19228238  0.96758356    -0.07300
C956        C  0.58063598  0.19131946  0.99825733     0.13500
C957        C  0.56584774  0.22526405  0.01543525    -0.24200
H958        H  0.54893752  0.15676611  0.03356549     0.14800
H959        H  0.64340982  0.16041257  0.93753548     0.14800
C960        C  0.63492115  0.09341123  0.96297940    -0.24100
H961        H  0.55139812  0.21911732  0.04120071     0.05000
H962        H  0.54584548  0.23798982  0.99697886     0.08300
H963        H  0.58878532  0.24461316  0.02188052     0.08300
H964        H  0.61849269  0.07538046  0.94465556     0.08300
H965        H  0.64358396  0.07834064  0.98750579     0.08300
H966        H  0.66023772  0.10117904  0.94797438     0.05000
C967        C  0.07352629  0.10457886  0.56884888    -0.20800
C968        C  0.03644721  0.10321318  0.55842957    -0.07300
C969        C  0.01728682  0.13620052  0.55416540     0.13500
C970        C  0.03603740  0.16968064  0.55913638    -0.20800
C971        C  0.07356087  0.17106496  0.56822034    -0.07300
C972        C  0.09239028  0.13788336  0.57388858     0.13500
C973        C  0.13296066  0.13694179  0.58291762    -0.24200
H974        H  0.08846028  0.07929021  0.57065764     0.14800
H975        H  0.02144191  0.19491678  0.55539163     0.14800
C976        C  0.97749711  0.13626685  0.54259373    -0.24100
H977        H  0.14354052  0.10870988  0.58273568     0.05000
H978        H  0.13812749  0.14833694  0.61053307     0.08300
H979        H  0.14882463  0.15270416  0.56257350     0.08300
H980        H  0.96077763  0.11974681  0.56164791     0.08300
H981        H  0.97470555  0.12490882  0.51477826     0.08300
H982        H  0.96630576  0.16424951  0.54225850     0.05000
C983        C  0.42349009  0.05073894  0.82690426    -0.20800
C984        C  0.44374240  0.04692163  0.79448551    -0.07300
C985        C  0.47273133  0.02129855  0.79422851     0.13500
C986        C  0.48342713  0.00445582  0.82706139    -0.20800
C987        C  0.46559809  0.01200332  0.86007561    -0.07300
C988        C  0.43394984  0.03393011  0.85935989     0.13500
C989        C  0.41099495  0.04013114  0.89287415    -0.24200
H990        H  0.39982358  0.06831969  0.82755190     0.14800
H991        H  0.50732580  0.98712629  0.82734859     0.14800
C992        C  0.49302804  0.01188345  0.75998398    -0.24100
H993        H  0.38536282  0.05498595  0.88656619     0.05000
H994        H  0.42645667  0.05674798  0.91322528     0.08300
H995        H  0.40296580  0.01357664  0.90481004     0.08300
H996        H  0.50748243  0.03637420  0.74949969     0.08300
H997        H  0.47328851  0.00114549  0.73924415     0.08300
H998        H  0.51381696  0.99054988  0.76470329     0.05000
C999        C  0.18208261  0.44165874  0.99839412    -0.20800
C1000       C  0.18149244  0.42910842  0.96222107    -0.07300
C1001       C  0.14680129  0.42374452  0.94475302     0.13500
C1002       C  0.11439549  0.43099445  0.96379065    -0.20800
C1003       C  0.11483750  0.44611870  0.99901444    -0.07300
C1004       C  0.14950490  0.45131442  0.01666699     0.13500
C1005       C  0.15291753  0.46742992  0.05439665    -0.24200
H1006       H  0.20838354  0.44484254  0.01216699     0.14800
H1007       H  0.08836128  0.42716111  0.94968298     0.14800
C1008       C  0.14305280  0.41285158  0.90516809    -0.24100
H1009       H  0.18179467  0.46717605  0.06447665     0.05000
H1010       H  0.13589181  0.45150765  0.07353084     0.08300
H1011       H  0.14423687  0.49623822  0.05460873     0.08300
H1012       H  0.15178487  0.38438335  0.90096774     0.08300
H1013       H  0.15978575  0.43151229  0.88816068     0.08300
H1014       H  0.11413122  0.41426278  0.89535433     0.05000
C1015       C  0.17117118  0.24034040  0.70404925    -0.20800
C1016       C  0.20728172  0.25253614  0.69808238    -0.07300
C1017       C  0.21806389  0.26397906  0.66321052     0.13500
C1018       C  0.19258551  0.26176793  0.63457339    -0.20800
C1019       C  0.15695421  0.24794295  0.64011755    -0.07300
C1020       C  0.14576170  0.23773192  0.67536409     0.13500
C1021       C  0.10695581  0.22498916  0.68307169    -0.24200
H1022       H  0.16310459  0.23226080  0.73114387     0.14800
H1023       H  0.20076464  0.26996684  0.60755037     0.14800
C1024       C  0.25623882  0.27884079  0.65632287    -0.24100
H1025       H  0.10256625  0.22053632  0.71254144     0.05000
H1026       H  0.10103634  0.19878816  0.66880426     0.08300
H1027       H  0.08714677  0.24578898  0.67393787     0.08300
H1028       H  0.27696074  0.25766594  0.66178188     0.08300
H1029       H  0.26174490  0.30278107  0.67432627     0.08300
H1030       H  0.25958791  0.28760606  0.62773074     0.05000
C1031       C  0.35089895  0.21340326  0.74203969    -0.20800
C1032       C  0.31786462  0.20291194  0.75847255    -0.07300
C1033       C  0.31389395  0.16788821  0.77324789     0.13500
C1034       C  0.34287756  0.14333097  0.76997613    -0.20800
C1035       C  0.37537513  0.15304553  0.75178720    -0.07300
C1036       C  0.37984764  0.18887034  0.73844598     0.13500
C1037       C  0.41513276  0.20169149  0.72101629    -0.24200
H1038       H  0.35364892  0.24066118  0.73125871     0.14800
H1039       H  0.33953817  0.11596561  0.78031429     0.14800
C1040       C  0.27884525  0.15637144  0.79182204    -0.24100
H1041       H  0.41464292  0.23127189  0.71509217     0.05000
H1042       H  0.41942868  0.18717506  0.69485212     0.08300
H1043       H  0.43870868  0.19684364  0.73959123     0.08300
H1044       H  0.25537231  0.15777966  0.77246069     0.08300
H1045       H  0.27367741  0.17475736  0.81533173     0.08300
H1046       H  0.28032613  0.12805985  0.80196732     0.05000
C1047       C  0.23309701  0.29974326  0.84512665    -0.20800
C1048       C  0.25306791  0.30757587  0.81374116    -0.07300
C1049       C  0.27110216  0.34148295  0.81013129     0.13500
C1050       C  0.26878674  0.36712071  0.83835658    -0.20800
C1051       C  0.24878987  0.35956252  0.87002774    -0.07300
C1052       C  0.23077386  0.32530449  0.87354956     0.13500
C1053       C  0.21065246  0.31466773  0.90761968    -0.24200
H1054       H  0.21967966  0.27331991  0.84749397     0.14800
H1055       H  0.28260946  0.39329321  0.83561816     0.14800
C1056       C  0.29291052  0.35041681  0.77659373    -0.24100
H1057       H  0.20073111  0.28592981  0.90635630     0.05000
H1058       H  0.18622468  0.33192192  0.91148475     0.08300
H1059       H  0.22933435  0.31766295  0.93147589     0.08300
H1060       H  0.27464474  0.34898915  0.75231336     0.08300
H1061       H  0.31548492  0.33062668  0.77322010     0.08300
H1062       H  0.30535353  0.37819038  0.77822280     0.05000
C1063       C  0.85540300  0.55355396  0.01472121    -0.20800
C1064       C  0.88868781  0.56969012  0.00353192    -0.07300
C1065       C  0.88695311  0.59608037  0.97564552     0.13500
C1066       C  0.85345280  0.60167438  0.95712136    -0.20800
C1067       C  0.82073485  0.58253331  0.96562764    -0.07300
C1068       C  0.82186466  0.55969281  0.99643685     0.13500
C1069       C  0.78791717  0.54201406  0.01091309    -0.24200
H1070       H  0.85578034  0.53427238  0.03678848     0.14800
H1071       H  0.85345052  0.62062477  0.93496312     0.14800
C1072       C  0.92007605  0.61862236  0.96472760    -0.24100
H1073       H  0.79321785  0.52764446  0.03675725     0.05000
H1074       H  0.77681825  0.52182817  0.99093157     0.08300
H1075       H  0.76772230  0.56366022  0.01648354     0.08300
H1076       H  0.94011301  0.60173625  0.94980980     0.08300
H1077       H  0.93327859  0.63108350  0.98923552     0.08300
H1078       H  0.91234372  0.64109680  0.94635992     0.05000
C1079       C  0.00539826  0.79141797  0.55508520    -0.20800
C1080       C  0.97283762  0.79170715  0.57572541    -0.07300
C1081       C  0.96142791  0.82555540  0.59102441     0.13500
C1082       C  0.98049867  0.85762585  0.58228038    -0.20800
C1083       C  0.01015297  0.85778178  0.55818231    -0.07300
C1084       C  0.02444412  0.82396826  0.54642435     0.13500
C1085       C  0.05873077  0.82190478  0.52370133    -0.24200
H1086       H  0.01531671  0.76574882  0.54453486     0.14800
H1087       H  0.97030893  0.88342419  0.59234022     0.14800
C1088       C  0.92791245  0.82945312  0.61484123    -0.24100
H1089       H  0.06609404  0.79329110  0.51737134     0.05000
H1090       H  0.08216023  0.83485996  0.53870487     0.08300
H1091       H  0.05473853  0.83599049  0.49755170     0.08300
H1092       H  0.93169193  0.81412573  0.64038460     0.08300
H1093       H  0.90290524  0.81965426  0.60002829     0.08300
H1094       H  0.92301603  0.85821442  0.62286565     0.05000
C1095       C  0.78676799  0.70107875  0.83415489    -0.20800
C1096       C  0.76056243  0.69853524  0.80627521    -0.07300
C1097       C  0.73379862  0.67046332  0.80685639     0.13500
C1098       C  0.73432797  0.64499977  0.83510654    -0.20800
C1099       C  0.76082288  0.64694179  0.86330719    -0.07300
C1100       C  0.78726079  0.67599742  0.86274520     0.13500
C1101       C  0.81616129  0.68146078  0.89184541    -0.24200
H1102       H  0.80719914  0.72287056  0.83333959     0.14800
H1103       H  0.71402128  0.62316961  0.83474420     0.14800
C1104       C  0.70492090  0.66723077  0.77742034    -0.24100
H1105       H  0.83236494  0.70700570  0.88806370     0.05000
H1106       H  0.83583651  0.65876712  0.89056937     0.08300
H1107       H  0.80308623  0.68315088  0.91898884     0.08300
H1108       H  0.71834348  0.66362413  0.75062277     0.08300
H1109       H  0.68819942  0.69228936  0.77701469     0.08300
H1110       H  0.68604981  0.64363850  0.78176763     0.05000
C1111       C  0.85631421  0.73420976  0.70099525    -0.20800
C1112       C  0.81929318  0.73793205  0.69069630    -0.07300
C1113       C  0.80949457  0.73457161  0.65348637     0.13500
C1114       C  0.83712486  0.72852438  0.62756093    -0.20800
C1115       C  0.87421778  0.72621745  0.63787188    -0.07300
C1116       C  0.88390587  0.72870310  0.67504572     0.13500
C1117       C  0.92329329  0.72510551  0.68743957    -0.24200
H1118       H  0.86373235  0.73627213  0.72952343     0.14800
H1119       H  0.82992172  0.72684657  0.59896118     0.14800
C1120       C  0.77000564  0.73664146  0.64098162    -0.24100
H1121       H  0.92577564  0.72620350  0.71752567     0.05000
H1122       H  0.94043060  0.74759513  0.67640224     0.08300
H1123       H  0.93421822  0.69862275  0.67787312     0.08300
H1124       H  0.75911133  0.76419967  0.64627940     0.08300
H1125       H  0.75299190  0.71614729  0.65547659     0.08300
H1126       H  0.76722414  0.73113704  0.61135276     0.05000
C1127       C  0.62643292  0.96795658  0.84302421    -0.20800
C1128       C  0.61568577  0.98233757  0.80933297    -0.07300
C1129       C  0.59734235  0.01629236  0.80953051     0.13500
C1130       C  0.58524868  0.03125597  0.84277450    -0.20800
C1131       C  0.59201162  0.01403089  0.87602278    -0.07300
C1132       C  0.61538538  0.98351408  0.87617681     0.13500
C1133       C  0.62884677  0.96688547  0.91104573    -0.24200
H1134       H  0.64220701  0.94322835  0.84372607     0.14800
H1135       H  0.56861892  0.05551605  0.84249173     0.14800
C1136       C  0.59100238  0.03756387  0.77530816    -0.24100
H1137       H  0.65056790  0.94651049  0.90592952     0.05000
H1138       H  0.60607292  0.95253181  0.92506097     0.08300
H1139       H  0.64083556  0.98846426  0.92907868     0.08300
H1140       H  0.57163413  0.02292173  0.75686674     0.08300
H1141       H  0.61760960  0.04214732  0.76127050     0.08300
H1142       H  0.57898944  0.06461876  0.78120462     0.05000
C1143       C  0.67200358  0.85035296  0.72157223    -0.20800
C1144       C  0.67668461  0.87748707  0.74869030    -0.07300
C1145       C  0.70448651  0.87255721  0.77551009     0.13500
C1146       C  0.72587531  0.84085104  0.77457435    -0.20800
C1147       C  0.72072949  0.81402306  0.74755139    -0.07300
C1148       C  0.69335410  0.81885843  0.72072202     0.13500
C1149       C  0.68511137  0.79101608  0.69123303    -0.24200
H1150       H  0.65094165  0.85321703  0.70086735     0.14800
H1151       H  0.74708242  0.83701291  0.79496703     0.14800
C1152       C  0.71269737  0.90051367  0.80481146    -0.24100
H1153       H  0.69043218  0.80324208  0.66427440     0.05000
H1154       H  0.65569327  0.78253979  0.69259090     0.08300
H1155       H  0.70168164  0.76607626  0.69350831     0.08300
H1156       H  0.68888822  0.90264646  0.82335126     0.08300
H1157       H  0.71893463  0.92731639  0.79242511     0.08300
H1158       H  0.73686174  0.89301080  0.82162314     0.05000
C1159       C  0.42846775  0.33743621  0.08244338    -0.20800
C1160       C  0.45294003  0.30871081  0.07696949    -0.07300
C1161       C  0.49007364  0.31679494  0.06872253     0.13500
C1162       C  0.50099946  0.35312045  0.06287014    -0.20800
C1163       C  0.47550095  0.38137572  0.06465779    -0.07300
C1164       C  0.43909149  0.37357209  0.07563632     0.13500
C1165       C  0.41079390  0.40298201  0.07806171    -0.24200
H1166       H  0.40010182  0.33134457  0.08941401     0.14800
H1167       H  0.52881942  0.35911897  0.05397620     0.14800
C1168       C  0.51797574  0.28721280  0.06546190    -0.24100
H1169       H  0.38421436  0.39254445  0.08883702     0.05000
H1170       H  0.40541517  0.41380889  0.05061512     0.08300
H1171       H  0.42088899  0.42522445  0.09637409     0.08300
H1172       H  0.50996126  0.26869722  0.04281868     0.08300
H1173       H  0.51920216  0.27167497  0.09113738    -0.01700
H1174       H  0.54593600  0.29829833  0.05976273     0.05000
C1175       C  0.58542922  0.34886342  0.91223754    -0.20800
C1176       C  0.56843912  0.31643277  0.92433168    -0.07300
C1177       C  0.53281414  0.31864362  0.93973315     0.13500
C1178       C  0.51803464  0.35303343  0.94735425    -0.20800
C1179       C  0.53666993  0.38530408  0.93804836    -0.07300
C1180       C  0.56986084  0.38311247  0.91863744     0.13500
C1181       C  0.58985499  0.41640320  0.90503460    -0.24200
H1182       H  0.61195724  0.34779822  0.89896907     0.14800
H1183       H  0.49221478  0.35467585  0.96191307     0.14800
C1184       C  0.50890035  0.28587410  0.94748273    -0.24100
H1185       H  0.59169891  0.41482085  0.87496304     0.05000
H1186       H  0.61816321  0.41743808  0.91635473     0.08300
H1187       H  0.57576566  0.44203253  0.91230597     0.08300
H1188       H  0.50410041  0.28394090  0.97713752     0.08300
H1189       H  0.52057097  0.26021477  0.93714243     0.08300
H1190       H  0.48188084  0.28886496  0.93365067     0.05000
C1191       C  0.64418613  0.52721198  0.05712583    -0.20800
C1192       C  0.61208657  0.51456484  0.07411540    -0.07300
C1193       C  0.61590744  0.48968019  0.10308027     0.13500
C1194       C  0.65061352  0.47478352  0.11056179    -0.20800
C1195       C  0.68217545  0.48374697  0.09013278    -0.07300
C1196       C  0.67881066  0.51212895  0.06451956     0.13500
C1197       C  0.71104480  0.52642434  0.04394456    -0.24200
H1198       H  0.64191810  0.54714385  0.03575569     0.14800
H1199       H  0.65246551  0.45466744  0.13175600     0.14800
C1200       C  0.58370076  0.47800694  0.12612654    -0.24100
H1201       H  0.70357332  0.54947541  0.02618576     0.05000
H1202       H  0.72199735  0.50458243  0.02624152     0.08300
H1203       H  0.73221348  0.53640788  0.06364042     0.08300
H1204       H  0.56447258  0.46025717  0.11023568     0.08300
H1205       H  0.56915171  0.50237242  0.13644933     0.08300
H1206       H  0.59268834  0.46211997  0.15002068     0.05000
C1207       C  0.62141308  0.54717809  0.92604840    -0.20800
C1208       C  0.62092091  0.51673198  0.94890997    -0.07300
C1209       C  0.65548475  0.50230161  0.95952868     0.13500
C1210       C  0.68856436  0.52070022  0.95000915    -0.20800
C1211       C  0.68878973  0.55308030  0.92978764    -0.07300
C1212       C  0.65426405  0.56538428  0.91633263     0.13500
C1213       C  0.65077750  0.59837620  0.89254285    -0.24200
H1214       H  0.59549880  0.55815161  0.91684467     0.14800
H1215       H  0.71459099  0.50985377  0.95898988     0.14800
C1216       C  0.65827469  0.46749949  0.98071306    -0.24100
H1217       H  0.62165248  0.60433347  0.88578754     0.05000
H1218       H  0.66502353  0.59349713  0.86642111     0.08300
H1219       H  0.66241150  0.62283476  0.90665561     0.08300
H1220       H  0.64340039  0.44517225  0.96622951     0.08300
H1221       H  0.64651030  0.47071378  0.00816079     0.08300
H1222       H  0.68730320  0.45908327  0.98425412     0.05000
C1223       C  0.53542391  0.66636209  0.08925009    -0.20800
C1224       C  0.52545367  0.69643245  0.06775804    -0.07300
C1225       C  0.49328676  0.69260509  0.04601459     0.13500
C1226       C  0.47531606  0.65842719  0.04281401    -0.20800
C1227       C  0.48860409  0.62779770  0.06088188    -0.07300
C1228       C  0.51716270  0.63266430  0.08658754     0.13500
C1229       C  0.52964415  0.60255572  0.11114629    -0.24200
H1230       H  0.55837237  0.66843109  0.10810620     0.14800
H1231       H  0.45258497  0.65504698  0.02384139     0.14800
C1232       C  0.47781158  0.72394966  0.02589619    -0.24100
H1233       H  0.52923845  0.61226067  0.13981764     0.05000
H1234       H  0.55815426  0.59471314  0.10408776     0.08300
H1235       H  0.51139454  0.57811686  0.10950033     0.08300
H1236       H  0.49802515  0.73338876  0.00553222     0.08300
H1237       H  0.47174036  0.74588573  0.04580244     0.08300
H1238       H  0.45180970  0.71657891  0.01140897     0.05000
C1239       C  0.45606003  0.63434938  0.94844952    -0.20800
C1240       C  0.49439990  0.63192008  0.95318792    -0.07300
C1241       C  0.51609895  0.66407818  0.94882730     0.13500
C1242       C  0.49892855  0.69692591  0.93864416    -0.20800
C1243       C  0.46050263  0.69884007  0.93414936    -0.07300
C1244       C  0.43889884  0.66708554  0.94009432     0.13500
C1245       C  0.39729185  0.66760577  0.93976312    -0.24200
H1246       H  0.43871365  0.61058280  0.95283644     0.14800
H1247       H  0.51550205  0.72127817  0.93450134     0.14800
C1248       C  0.55708093  0.66421923  0.95501648    -0.24100
H1249       H  0.38511047  0.64157326  0.94944280     0.05000
H1250       H  0.38672638  0.67167438  0.91181662     0.08300
H1251       H  0.38748641  0.68964513  0.95803052     0.08300
H1252       H  0.57002920  0.64368324  0.93699579     0.08300
H1253       H  0.56316372  0.65798362  0.98385952     0.08300
H1254       H  0.56973394  0.69121234  0.94914540     0.05000
C1255       C  0.35369880  0.48508414  0.04450058    -0.20800
C1256       C  0.38576029  0.49847154  0.06192032    -0.07300
C1257       C  0.38164359  0.52451072  0.09015704     0.13500
C1258       C  0.34738170  0.54098591  0.09508656    -0.20800
C1259       C  0.31625240  0.53198549  0.07347168    -0.07300
C1260       C  0.31916181  0.50114397  0.05014137     0.13500
C1261       C  0.28690175  0.48564125  0.02966831    -0.24200
H1262       H  0.35597298  0.46376707  0.02407045     0.14800
H1263       H  0.34585349  0.56245370  0.11513651     0.14800
C1264       C  0.41311300  0.53602877  0.11488541    -0.24100
H1265       H  0.29322295  0.45917117  0.01641400     0.05000
H1266       H  0.28010575  0.50497431  0.00806089     0.08300
H1267       H  0.26344755  0.48096306  0.04833084     0.08300
H1268       H  0.43299346  0.55370867  0.10035460     0.08300
H1269       H  0.42714214  0.51159756  0.12539937     0.08300
H1270       H  0.40332048  0.55193541  0.13869113     0.05000
C1271       C  0.38258667  0.45548917  0.94114205    -0.20800
C1272       C  0.38346813  0.49347752  0.94593194    -0.07300
C1273       C  0.34954948  0.51208093  0.94751629     0.13500
C1274       C  0.31608930  0.49240616  0.94259884    -0.20800
C1275       C  0.31547919  0.45432466  0.93828366    -0.07300
C1276       C  0.34941891  0.43567182  0.93838730     0.13500
C1277       C  0.35122806  0.39458782  0.93752414    -0.24200
H1278       H  0.40819761  0.44071698  0.94147202     0.14800
H1279       H  0.29026394  0.50679947  0.94231307     0.14800
C1280       C  0.34840478  0.55255236  0.95423095    -0.24100
H1281       H  0.37963031  0.38488161  0.94242969     0.05000
H1282       H  0.34248506  0.38373883  0.91056101     0.08300
H1283       H  0.33340498  0.38305866  0.95908083     0.08300
H1284       H  0.36510662  0.56690673  0.93351172     0.08300
H1285       H  0.35933246  0.55922861  0.98175248     0.08300
H1286       H  0.31984227  0.56285926  0.95278585     0.05000
C1287       C  0.08348679  0.46856186  0.35837485    -0.20800
C1288       C  0.07521881  0.44440950  0.38658285    -0.07300
C1289       C  0.07931465  0.40663000  0.38060112     0.13500
C1290       C  0.08916889  0.39377774  0.34617401    -0.20800
C1291       C  0.09419377  0.41755900  0.31703173    -0.07300
C1292       C  0.09271452  0.45555577  0.32347707     0.13500
C1293       C  0.10089532  0.48238128  0.29386395    -0.24200
H1294       H  0.08004249  0.49752628  0.36288908     0.14800
H1295       H  0.09119798  0.36466837  0.34156366     0.14800
C1296       C  0.07234642  0.37955306  0.41019970    -0.24100
H1297       H  0.08002046  0.47964969  0.27185591     0.05000
H1298       H  0.12869720  0.47734927  0.28265244     0.08300
H1299       H  0.10035706  0.51090272  0.30416821     0.08300
H1300       H  0.04289988  0.37970870  0.41776661     0.08300
H1301       H  0.08988556  0.38661054  0.43409503     0.08300
H1302       H  0.07893063  0.35134851  0.40148962     0.05000
C1303       C  0.91930093  0.54261982  0.38764201    -0.20800
C1304       C  0.94137882  0.51229706  0.38184119    -0.07300
C1305       C  0.94985153  0.50160737  0.34592744     0.13500
C1306       C  0.93688822  0.52212160  0.31665226    -0.20800
C1307       C  0.91658417  0.55403809  0.32218199    -0.07300
C1308       C  0.90699042  0.56389149  0.35851115     0.13500
C1309       C  0.88591227  0.59782867  0.36764236    -0.24200
H1310       H  0.91395393  0.55124524  0.41536875     0.14800
H1311       H  0.94403313  0.51385612  0.28926877     0.14800
C1312       C  0.97399063  0.46933496  0.33852493    -0.24100
H1313       H  0.88296425  0.60186321  0.39743748     0.05000
H1314       H  0.85773519  0.59578380  0.35604665     0.08300
H1315       H  0.90058229  0.62215942  0.35699315     0.08300
H1316       H  0.96164988  0.44459291  0.35085619     0.08300
H1317       H  0.00180820  0.47430856  0.35027610     0.08300
H1318       H  0.97725926  0.46410756  0.30894643     0.05000
C1319       C  0.07883123  0.52362631  0.62697290    -0.20800
C1320       C  0.06051805  0.48968438  0.62706518    -0.07300
C1321       C  0.05190447  0.47377241  0.66101138     0.13500
C1322       C  0.05926044  0.49359711  0.69338297    -0.20800
C1323       C  0.07478293  0.52886923  0.69281987    -0.07300
C1324       C  0.08512467  0.54381377  0.65889655     0.13500
C1325       C  0.10004082  0.58221644  0.65520020    -0.24200
H1326       H  0.08602902  0.53590746  0.60127961     0.14800
H1327       H  0.05196190  0.48188464  0.71926944     0.14800
C1328       C  0.03391827  0.43667910  0.66358063    -0.24100
H1329       H  0.12789838  0.58461826  0.66748616     0.05000
H1330       H  0.08113724  0.60172766  0.66844309     0.08300
H1331       H  0.10269706  0.59032256  0.62633192     0.08300
H1332       H  0.05144841  0.41610613  0.65008921     0.08300
H1333       H  0.00636810  0.43670055  0.65047177     0.08300
H1334       H  0.03002104  0.42839066  0.69225603     0.05000
C1335       C  0.92383699  0.45941143  0.62155402    -0.20800
C1336       C  0.94619083  0.49078620  0.62272914    -0.07300
C1337       C  0.95818828  0.50423511  0.65705402     0.13500
C1338       C  0.95159732  0.48322632  0.68838097    -0.20800
C1339       C  0.93294341  0.44926649  0.68646239    -0.07300
C1340       C  0.91753290  0.43814288  0.65226402     0.13500
C1341       C  0.89589374  0.40310322  0.64634282    -0.24200
H1342       H  0.91343834  0.44973568  0.59545104     0.14800
H1343       H  0.96226612  0.49289023  0.71430222     0.14800
C1344       C  0.97863528  0.54002658  0.66087546    -0.24100
H1345       H  0.88737090  0.39898949  0.61753413     0.05000
H1346       H  0.87025494  0.40366287  0.66250331     0.08300
H1347       H  0.91294630  0.37940885  0.65365834     0.08300
H1348       H  0.96126593  0.56222462  0.65034274     0.08300
H1349       H  0.00465482  0.53937698  0.64547155     0.08300
H1350       H  0.98563705  0.54645279  0.68967705     0.05000
C1351       C  0.10747124  0.33613734  0.55077936    -0.20800
C1352       C  0.09454224  0.30265419  0.53632201    -0.07300
C1353       C  0.07316333  0.30353810  0.50403844     0.13500
C1354       C  0.05946180  0.33721837  0.49186827    -0.20800
C1355       C  0.06941050  0.37062879  0.50894858    -0.07300
C1356       C  0.09615578  0.36973943  0.53728003     0.13500
C1357       C  0.11266308  0.40364112  0.55477654    -0.24200
H1358       H  0.12587547  0.33641999  0.57402403     0.14800
H1359       H  0.04037018  0.33720517  0.46917715     0.14800
C1360       C  0.06652109  0.26979146  0.48113302    -0.24100
H1361       H  0.13550387  0.39730502  0.57377379     0.05000
H1362       H  0.09167963  0.41798505  0.57095645     0.08300
H1363       H  0.12418098  0.42177828  0.53361591     0.08300
H1364       H  0.05006363  0.24923208  0.49590999     0.08300
H1365       H  0.09334556  0.25783801  0.47358610     0.08300
H1366       H  0.05157695  0.27605153  0.45558895     0.05000
C1367       C  0.96081575  0.33873676  0.51637918    -0.20800
C1368       C  0.93899589  0.36952292  0.51020958    -0.07300
C1369       C  0.90522763  0.36446852  0.49140448     0.13500
C1370       C  0.89745375  0.33085186  0.47427130    -0.20800
C1371       C  0.92210478  0.30155754  0.47567298    -0.07300
C1372       C  0.95247921  0.30472506  0.49984513     0.13500
C1373       C  0.97683757  0.27302950  0.50757275    -0.24200
H1374       H  0.98593014  0.34176121  0.53221867     0.14800
H1375       H  0.87244754  0.32812743  0.45822670     0.14800
C1376       C  0.87725006  0.39431028  0.48889845    -0.24100
H1377       H  0.99889317  0.28032293  0.52747188     0.05000
H1378       H  0.98981322  0.26374793  0.48202992     0.08300
H1379       H  0.96027119  0.25042594  0.51924697     0.08300
H1380       H  0.88746413  0.41673998  0.47159051     0.08300
H1381       H  0.87111190  0.40492185  0.51654150     0.08300
H1382       H  0.85096854  0.38421136  0.47663618     0.05000
C1383       C  0.91131268  0.63558849  0.53954927    -0.20800
C1384       C  0.93338120  0.66656055  0.53242153    -0.07300
C1385       C  0.95871146  0.66410741  0.50322328     0.13500
C1386       C  0.96514195  0.63000007  0.48654125    -0.20800
C1387       C  0.94680191  0.59801692  0.49773143    -0.07300
C1388       C  0.91733915  0.60171178  0.52260620     0.13500
C1389       C  0.89240376  0.57015472  0.53249836    -0.24200
H1390       H  0.89006724  0.63713645  0.55999752     0.14800
H1391       H  0.98662861  0.62804610  0.46634174     0.14800
C1392       C  0.97938597  0.69682378  0.48930922    -0.24100
H1393       H  0.86799715  0.57935616  0.54794323     0.05000
H1394       H  0.90708079  0.55072828  0.55006441     0.08300
H1395       H  0.88220227  0.55615804  0.50743294     0.08300
H1396       H  0.99894346  0.70737459  0.51022598     0.08300
H1397       H  0.95953228  0.71817034  0.48178432     0.08300
H1398       H  0.99561044  0.69017425  0.46469334     0.05000
C1399       C  0.08276479  0.59889259  0.45979199    -0.20800
C1400       C  0.06789382  0.59973291  0.49496390    -0.07300
C1401       C  0.06145988  0.63424579  0.51128853     0.13500
C1402       C  0.06903186  0.66640629  0.49159373    -0.20800
C1403       C  0.08210920  0.66525823  0.45563727    -0.07300
C1404       C  0.08935115  0.63063229  0.43981722     0.13500
C1405       C  0.10213533  0.62611775  0.40105745    -0.24200
H1406       H  0.08756424  0.57283271  0.44671731     0.14800
H1407       H  0.06419752  0.69267507  0.50420484     0.14800
C1408       C  0.04675097  0.63754636  0.54935334    -0.24100
H1409       H  0.10302039  0.59705020  0.39249619     0.05000
H1410       H  0.13045081  0.63736219  0.39811030     0.08300
H1411       H  0.08294833  0.63998289  0.38231760     0.08300
H1412       H  0.06483605  0.62276379  0.56843520     0.08300
H1413       H  0.01835428  0.62617916  0.55065125     0.08300
H1414       H  0.04561903  0.66641417  0.55853828     0.05000
C1415       C  0.48984889  0.08435852  0.65759379    -0.20800
C1416       C  0.45248130  0.08998896  0.66461512    -0.07300
C1417       C  0.42798374  0.09414417  0.63469332     0.13500
C1418       C  0.44101573  0.08967752  0.59905673    -0.20800
C1419       C  0.47765476  0.08066456  0.59213564    -0.07300
C1420       C  0.50276225  0.08042046  0.62178375     0.13500
C1421       C  0.54309201  0.07348234  0.61644950    -0.24200
H1422       H  0.50904341  0.08252982  0.68014955     0.14800
H1423       H  0.42146769  0.08880623  0.57669419     0.14800
C1424       C  0.38731947  0.10019565  0.63986716    -0.24100
H1425       H  0.55951335  0.09615954  0.62886079     0.05000
H1426       H  0.55040835  0.07189019  0.58728422     0.08300
H1427       H  0.55067508  0.04763667  0.62977226     0.08300
H1428       H  0.38269487  0.12747079  0.65208198     0.08300
H1429       H  0.37555087  0.07877508  0.65761270     0.08300
H1430       H  0.37198607  0.09912396  0.61366460     0.05000
C1431       C  0.58577635  0.95616477  0.61389719    -0.20800
C1432       C  0.54756838  0.96056251  0.61496192    -0.07300
C1433       C  0.52958554  0.96066376  0.64891010     0.13500
C1434       C  0.55024681  0.95558197  0.68095956    -0.20800
C1435       C  0.58853671  0.95062841  0.67984230    -0.07300
C1436       C  0.60648383  0.95106615  0.64574484     0.13500
C1437       C  0.64771969  0.94805544  0.64274614    -0.24200
H1438       H  0.59962294  0.95759731  0.58793446     0.14800
H1439       H  0.53647432  0.95552550  0.70699618     0.14800
C1440       C  0.48893193  0.96766582  0.65141773    -0.24100
H1441       H  0.65720894  0.95180492  0.61437068     0.05000
H1442       H  0.65661574  0.92072388  0.65143407     0.08300
H1443       H  0.66138462  0.96933104  0.65996701     0.08300
H1444       H  0.47915668  0.96668813  0.67991574     0.08300
H1445       H  0.48289451  0.99505582  0.64061195     0.08300
H1446       H  0.47336653  0.94673166  0.63539995     0.05000
C1447       C  0.32651580  0.07926205  0.47306182    -0.20800
C1448       C  0.29963956  0.05142478  0.46989912    -0.07300
C1449       C  0.30340447  0.02019825  0.49206449     0.13500
C1450       C  0.33629931  0.01530373  0.51168089    -0.20800
C1451       C  0.36549529  0.04055032  0.50947522    -0.07300
C1452       C  0.35905257  0.07442653  0.49291759     0.13500
C1453       C  0.38677119  0.10535449  0.49426866    -0.24200
H1454       H  0.32306834  0.10451041  0.45858186     0.14800
H1455       H  0.34067249  0.98974889  0.52539195     0.14800
C1456       C  0.27433558  0.99071416  0.49373863    -0.24100
H1457       H  0.37354766  0.13008876  0.50547507     0.05000
H1458       H  0.39674741  0.11116028  0.46643681     0.08300
H1459       H  0.41073112  0.09945668  0.51192457     0.08300
H1460       H  0.27156448  0.97673310  0.46695821     0.08300
H1461       H  0.24780614  0.00271767  0.50185809     0.08300
H1462       H  0.28105940  0.97007219  0.51434453     0.05000
C1463       C  0.37813433  0.91264850  0.55268321    -0.20800
C1464       C  0.38057065  0.91698138  0.51489953    -0.07300
C1465       C  0.34797836  0.91285999  0.49361150     0.13500
C1466       C  0.31421292  0.90490140  0.51081327    -0.20800
C1467       C  0.31184074  0.90277058  0.54877911    -0.07300
C1468       C  0.34437694  0.90671736  0.56991495     0.13500
C1469       C  0.34363354  0.90751915  0.61096150    -0.24200
H1470       H  0.40250968  0.91678105  0.56942489     0.14800
H1471       H  0.28932839  0.90147641  0.49467046     0.14800
C1472       C  0.34830366  0.91727329  0.45295597    -0.24100
H1473       H  0.37098645  0.91474694  0.62283543     0.05000
H1474       H  0.33577895  0.88046508  0.62163738     0.08300
H1475       H  0.32380042  0.92819535  0.62053942     0.08300
H1476       H  0.36919062  0.89915496  0.44075668     0.08300
H1477       H  0.35451828  0.94597618  0.44589278     0.08300
H1478       H  0.32114096  0.91013427  0.44060641     0.05000
C1479       C  0.56327513  0.09981729  0.36279839    -0.20800
C1480       C  0.54601204  0.08859806  0.32985403    -0.07300
C1481       C  0.50986399  0.07380223  0.33199720     0.13500
C1482       C  0.49366826  0.06847399  0.36631595    -0.20800
C1483       C  0.51242942  0.07641097  0.39935300    -0.07300
C1484       C  0.54685695  0.09473573  0.39707131     0.13500
C1485       C  0.56689217  0.11028302  0.42976485    -0.24200
H1486       H  0.59025803  0.11274612  0.36211956     0.14800
H1487       H  0.46656578  0.05591582  0.36713278     0.14800
C1488       C  0.48789425  0.06310181  0.29861362    -0.24100
H1489       H  0.55031706  0.10927093  0.45484102     0.05000
H1490       H  0.57339657  0.13949357  0.42511878     0.08300
H1491       H  0.59308390  0.09568883  0.43385599     0.08300
H1492       H  0.50127234  0.04006807  0.28455431     0.08300
H1493       H  0.48567340  0.08667185  0.28014155     0.08300
H1494       H  0.45950353  0.05396524  0.30542304     0.05000
C1495       C  0.48588474  0.93571436  0.30584659    -0.20800
C1496       C  0.45070100  0.94836488  0.29655805    -0.07300
C1497       C  0.43218413  0.97151476  0.32082483     0.13500
C1498       C  0.44801761  0.97969196  0.35470217    -0.20800
C1499       C  0.48222074  0.96566259  0.36511484    -0.07300
C1500       C  0.50200879  0.94433892  0.34001569     0.13500
C1501       C  0.53888203  0.92922170  0.34999089    -0.24200
H1502       H  0.50003082  0.91795058  0.28701537     0.14800
H1503       H  0.43281786  0.99616230  0.37391502     0.14800
C1504       C  0.39498275  0.98662802  0.31145420    -0.24100
H1505       H  0.55063802  0.91298897  0.32734135     0.05000
H1506       H  0.53593577  0.91128907  0.37387051     0.08300
H1507       H  0.55838985  0.95187781  0.35672700     0.08300
H1508       H  0.37480881  0.96401819  0.30692352     0.08300
H1509       H  0.39708266  0.00304722  0.28638044     0.08300
H1510       H  0.38436451  0.00442763  0.33349376     0.05000
C1511       C  0.67444299  0.09271465  0.53497902    -0.20800
C1512       C  0.70479164  0.07182942  0.52437263    -0.07300
C1513       C  0.70082627  0.05078546  0.49198384     0.13500
C1514       C  0.66506768  0.04226338  0.47849803    -0.20800
C1515       C  0.63403716  0.05904553  0.49347160    -0.07300
C1516       C  0.63994536  0.08812971  0.51854983     0.13500
C1517       C  0.61019646  0.11422185  0.52964113    -0.24200
H1518       H  0.67697980  0.11243197  0.55698825     0.14800
H1519       H  0.66143866  0.02216785  0.45695934     0.14800
C1520       C  0.73358755  0.04098413  0.46957462    -0.24100
H1521       H  0.62022252  0.14261834  0.52580417     0.05000
H1522       H  0.60337505  0.11042866  0.55873518     0.08300
H1523       H  0.58484525  0.11100482  0.51297848     0.08300
H1524       H  0.75270963  0.02466980  0.48532535     0.08300
H1525       H  0.74814776  0.06625637  0.46112429     0.08300
H1526       H  0.72551813  0.02531365  0.44472691     0.05000
C1527       C  0.64370218  0.89175919  0.45128195    -0.20800
C1528       C  0.67539297  0.91172516  0.46266523    -0.07300
C1529       C  0.67190272  0.93523692  0.49315112     0.13500
C1530       C  0.63664257  0.94319019  0.50640774    -0.20800
C1531       C  0.60465073  0.92828175  0.49002229    -0.07300
C1532       C  0.60851566  0.89973223  0.46444300     0.13500
C1533       C  0.57578109  0.87816169  0.45012570    -0.24200
H1534       H  0.64583578  0.87115101  0.43016307     0.14800
H1535       H  0.63408139  0.96397474  0.52733220     0.14800
C1536       C  0.70462184  0.95286610  0.51138306    -0.24100
H1537       H  0.58436903  0.85481122  0.43288619     0.05000
H1538       H  0.55792133  0.89531078  0.43315103     0.08300
H1539       H  0.55970693  0.86714888  0.47320272     0.08300
H1540       H  0.71858779  0.97117923  0.49214632     0.08300
H1541       H  0.72363530  0.93140313  0.52052004     0.08300
H1542       H  0.69683341  0.96942000  0.53551027     0.05000
loop_ 
_geom_bond_atom_site_label_1 
_geom_bond_atom_site_label_2 
_geom_bond_distance 
_geom_bond_site_symmetry_2 
_ccdc_geom_bond_type 
O1            C9   1.232       .  A
O1          Co21   1.953   1_565  S
O2           C10   1.267       .  A
O2          Co22   1.966       .  S
O3           C11   1.264   1_545  A
O3          Co23   1.990       .  S
O4           C12   1.266       .  A
O4          Co24   1.967       .  S
O5           C11   1.273       .  A
O5          Co22   2.005       .  S
O6           C12   1.281       .  A
O6          Co21   2.047   1_565  S
O7           C10   1.272       .  A
O7          Co24   2.024       .  S
O8            C9   1.254       .  A
O8          Co23   2.049   1_565  S
C9         C1531   1.486       .  S
C10        C1464   1.491       .  S
C11        C1432   1.479       .  S
C12        C1499   1.483       .  S
O13          C26   1.262       .  A
O13         Co21   1.981       .  S
O14          C27   1.267       .  A
O14         Co22   1.973   1_545  S
O15          C28   1.287       .  A
O15         Co23   1.927       .  S
O16          C29   1.254       .  A
O16         Co24   1.952   1_545  S
O17          C29   1.273       .  A
O17         Co22   2.042   1_545  S
O18          C28   1.309       .  A
O18         Co21   2.051       .  S
O19          C26   1.260       .  A
O19         Co24   1.997   1_545  S
O20          C27   1.280       .  A
O20         Co23   2.003       .  S
Co21         O25   2.043   1_545  S
Co22         O25   2.061       .  S
Co23         O25   2.031   1_545  S
Co24         O25   2.036       .  S
C26        C1483   1.512       .  S
C27        C1419   1.472       .  S
C28        C1515   1.490       .  S
C29        C1451   1.481       .  S
O30          C38   1.265       .  A
O30         Co50   1.958       .  S
O31          C39   1.259       .  A
O31         Co51   1.970       .  S
O32          C40   1.265       .  A
O32         Co52   1.985   1_655  S
O33          C41   1.287       .  A
O33         Co53   2.062   1_655  S
O34          C40   1.272       .  A
O34         Co51   2.002       .  S
O35          C41   1.271       .  A
O35         Co50   1.939       .  S
O36          C39   1.265       .  A
O36         Co53   2.021   1_655  S
O37          C38   1.286       .  A
O37         Co52   2.061   1_655  S
C38        C1387   1.502       .  S
C39        C1368   1.495       .  S
C40        C1304   1.473       .  S
C41        C1336   1.491       .  S
O42          C55   1.290       .  A
O42         Co50   2.067   1_455  S
O43          C56   1.268       .  A
O43         Co51   1.987   1_455  S
O44          C57   1.260       .  A
O44         Co52   1.966       .  S
O45          C58   1.267       .  A
O45         Co53   1.958       .  S
O46          C58   1.286       .  A
O46         Co51   2.065   1_455  S
O47          C57   1.265       .  A
O47         Co50   2.033   1_455  S
O48          C55   1.269       .  A
O48         Co53   1.925       .  S
O49          C56   1.272       .  A
O49         Co52   1.993       .  S
Co50         O54   2.038   1_655  S
Co51         O54   2.030   1_655  S
Co52         O54   2.033       .  S
Co53         O54   2.020       .  S
C55        C1320   1.492       .  S
C56        C1288   1.475       .  S
C57        C1400   1.503       .  S
C58        C1355   1.508       .  S
O59          C67   1.261       .  A
O59         Co79   1.965       .  S
O60          C68   1.272       .  A
O60         Co80   1.970       .  S
O61          C69   1.292       .  A
O61         Co81   2.072   1_556  S
O62          C70   1.270       .  A
O62         Co82   1.995   1_556  S
O63          C69   1.273       .  A
O63         Co80   1.937       .  S
O64          C70   1.273       .  A
O64         Co79   1.990       .  S
O65          C68   1.283       .  A
O65         Co82   2.059   1_556  S
O66          C67   1.261       .  A
O66         Co81   2.021   1_556  S
C67        C1272   1.496       .  S
C68        C1208   1.513       .  S
C69        C1240   1.503       .  S
C70        C1179   1.473       .  S
O71          C84   1.263       .  A
O71         Co79   1.983   1_554  S
O72          C85   1.287       .  A
O72         Co80   2.073   1_554  S
O73          C86   1.264       .  A
O73         Co81   1.959       .  S
O74          C87   1.254       .  A
O74         Co82   1.962       .  S
O75          C87   1.269       .  A
O75         Co80   2.028   1_554  S
O76          C86   1.281       .  A
O76         Co79   2.046   1_554  S
O77          C84   1.268       .  A
O77         Co82   1.995       .  S
O78          C85   1.267       .  A
O78         Co81   1.924       .  S
Co79         O83   2.047   1_556  S
Co80         O83   2.043   1_556  S
Co81         O83   2.034       .  S
Co82         O83   2.029       .  S
C84        C1163   1.471       .  S
C85        C1227   1.479       .  S
C86        C1256   1.496       .  S
C87        C1192   1.498       .  S
C88        C1128   1.505       .  S
C88          N89   1.364       .  A
C88          N93   1.365       .  A
N89          C90   1.361       .  A
C90        C1435   1.488       .  S
C90          N91   1.355       .  A
N91          C92   1.358       .  A
C92        C1144   1.502       .  S
C92          N93   1.361       .  A
C94        C1112   1.487       .  S
C94          C95   1.406       .  A
C94          C99   1.404       .  A
C95          C96   1.406       .  A
C95         H100   1.083       .  S
C96        C1147   1.484       .  S
C96          C97   1.405       .  A
C97          C98   1.403       .  A
C97         H101   1.084       .  S
C98        C1096   1.480       .  S
C98          C99   1.402       .  A
C99         H102   1.084       .  S
C103       C1080   1.501       .  S
C103        N104   1.368       .  A
C103        N108   1.352       .  A
N104        C105   1.370       .  A
C105       C1384   1.512       .  S
C105        N106   1.366       .  A
N106        C107   1.356       .  A
C107       C1115   1.476       .  S
C107        N108   1.348       .  A
C109       C1067   1.521       .  S
C109        N110   1.372       .  A
C109        N114   1.362       .  A
N110        C111   1.371       .  A
C111       C1211   1.518       .  S
C111        N112   1.360       .  A
N112        C113   1.360       .  A
C113       C1099   1.504       .  S
C113        N114   1.358       .  A
C115       C1032   1.467       .  S
C115        C116   1.397       .  A
C115        C120   1.399       .  A
C116        C117   1.399       .  A
C116        H121   1.084       .  S
C117       C1048   1.464       .  S
C117        C118   1.398       .  A
C118        C119   1.398       .  A
C118        H122   1.084       .  S
C119       C1016   1.468       .  S
C119        C120   1.400       .  A
C120        H123   1.084       .  S
C124       C1275   1.492       .  S
C124        N125   1.354       .  A
C124        N129   1.370       .  A
N125        C126   1.350       .  A
C126       C1051   1.475       .  S
C126        N127   1.350       .  A
N127        C128   1.356       .  A
C128       C1000   1.496       .  S
C128        N129   1.372       .  A
C130        C984   1.514       .  S
C130        N131   1.373       .  A
C130        N135   1.362       .  A
N131        C132   1.372       .  A
C132       C1416   1.490       .  S
C132        N133   1.350       .  A
N133        C134   1.347       .  A
C134       C1035   1.474       .  S
C134        N135   1.353       .  A
C136        C971   1.486       .  S
C136        N137   1.350       .  A
C136        N141   1.370       .  A
N137        C138   1.347       .  A
C138       C1019   1.466       .  S
C138        N139   1.351       .  A
N139        C140   1.360       .  A
C140       C1352   1.507       .  S
C140        N141   1.370       .  A
O142        C150   1.286       .  A
O142       Co162   2.073       .  S
O143        C151   1.264       .  A
O143       Co163   1.979       .  S
O144        C152   1.267       .  A
O144       Co164   1.966       .  S
O145        C153   1.257       .  A
O145       Co165   1.964   1_556  S
O146        C152   1.282   1_554  A
O146       Co163   2.031       .  S
O147        C153   1.263       .  A
O147       Co162   2.024       .  S
O148        C151   1.271   1_545  A
O148       Co165   1.998       .  S
O149        C150   1.271   1_565  A
O149       Co164   1.942       .  S
C150        C987   1.493       .  S
C151        C920   1.473       .  S
C152        C891   1.496       .  S
C153        C939   1.490       .  S
O154        C167   1.265   1_556  A
O154       Co162   1.960       .  S
O155        C168   1.264   1_554  A
O155       Co163   1.967       .  S
O156        C169   1.288       .  A
O156       Co164   2.073   1_545  S
O157        C170   1.269       .  A
O157       Co165   1.996       .  S
O158        C170   1.278       .  A
O158       Co163   2.005   1_545  S
O159        C169   1.269       .  A
O159       Co162   1.926       .  S
O160        C167   1.286       .  A
O160       Co165   2.056       .  S
O161        C168   1.267       .  A
O161       Co164   2.029       .  S
Co162       O166   2.034       .  S
Co163       O166   2.035   1_564  S
Co164       O166   2.049   1_565  S
Co165       O166   2.027   1_554  S
C167        C952   1.501   1_554  S
C168        C872   1.505   1_556  S
C169       C1131   1.492       .  S
C170        C904   1.488       .  S
C171        C856   1.470       .  S
C171        C172   1.402       .  A
C171        C176   1.400       .  A
C172        C173   1.401       .  A
C172        H177   1.084       .  S
C173        C827   1.470       .  S
C173        C174   1.400       .  A
C174        C175   1.398       .  A
C174        H178   1.084       .  S
C175        C843   1.470       .  S
C175        C176   1.399       .  A
C176        H179   1.084       .  S
C180        C888   1.504       .  S
C180        N181   1.360       .  A
C180        N185   1.372       .  A
N181        C182   1.355       .  A
C182        C859   1.483       .  S
C182        N183   1.350       .  A
N183        C184   1.354       .  A
C184       C1243   1.493       .  S
C184        N185   1.367       .  A
C186        C808   1.508       .  S
C186        N187   1.360       .  A
C186        N191   1.370       .  A
N187        C188   1.356       .  A
C188        C840   1.490       .  S
C188        N189   1.349       .  A
N189        C190   1.353       .  A
C190       C1467   1.484       .  S
C190        N191   1.367       .  A
C192        C795   1.505       .  S
C192        N193   1.367       .  A
C192        N197   1.359       .  A
N193        C194   1.368       .  A
C194       C1323   1.490       .  S
C194        N195   1.355       .  A
N195        C196   1.350       .  A
C196        C824   1.478       .  S
C196        N197   1.352       .  A
C198        C760   1.477       .  S
C198        C199   1.404       .  A
C198        C203   1.405       .  A
C199        C200   1.401       .  A
C199        H204   1.084       .  S
C200        C776   1.469       .  S
C200        C201   1.396       .  A
C201        C202   1.395       .  A
C201        H205   1.085       .  S
C202        C747   1.471       .  S
C202        C203   1.403       .  A
C203        H206   1.084       .  S
C207        C728   1.484       .  S
C207        N208   1.368       .  A
C207        N212   1.354       .  A
N208        C209   1.369       .  A
C209       C1371   1.505       .  S
C209        N210   1.358       .  A
N210        C211   1.354       .  A
C211        C779   1.486       .  S
C211        N212   1.351       .  A
C213        C712   1.498       .  S
C213        N214   1.355       .  A
C213        N218   1.369       .  A
N214        C215   1.352       .  A
C215        C763   1.478       .  S
C215        N216   1.355       .  A
N216        C217   1.362       .  A
C217       C1195   1.516       .  S
C217        N218   1.373       .  A
C219        C907   1.502       .  S
C219        N220   1.353       .  A
C219        N224   1.373       .  A
N220        C221   1.348       .  A
C221        C744   1.481       .  S
C221        N222   1.355       .  A
N222        C223   1.362       .  A
C223       C1480   1.513       .  S
C223        N224   1.377       .  A
O225        C233   1.263   1_556  A
O225       Co245   1.956       .  S
O226        C234   1.256   1_554  A
O226       Co246   1.963       .  S
O227        C235   1.262       .  A
O227       Co247   1.981       .  S
O228        C236   1.288   1_455  A
O228       Co248   2.070       .  S
O229        C235   1.265   1_455  A
O229       Co246   1.987       .  S
O230        C236   1.268       .  A
O230       Co245   1.927       .  S
O231        C234   1.271       .  A
O231       Co248   2.035       .  S
O232        C233   1.288       .  A
O232       Co247   2.070       .  S
C233       C1064   1.505       .  S
C234        C696   1.502   1_556  S
C235        C667   1.466       .  S
C236        C792   1.481       .  S
O237        C250   1.289   1_655  A
O237       Co245   2.068       .  S
O238        C251   1.271       .  A
O238       Co246   2.001       .  S
O239        C252   1.255       .  A
O239       Co247   1.958       .  S
O240        C253   1.270   1_556  A
O240       Co248   1.968       .  S
O241        C253   1.277       .  A
O241       Co246   2.040       .  S
O242        C252   1.262   1_556  A
O242       Co245   2.038       .  S
O243        C250   1.274       .  A
O243       Co248   1.934       .  S
O244        C251   1.270   1_655  A
O244       Co247   1.986       .  S
Co245       O249   2.040   1_656  S
Co246       O249   2.037       .  S
Co247       O249   2.035   1_655  S
Co248       O249   2.036   1_556  S
C250        C648   1.502   1_455  S
C251        C680   1.474       .  S
C252        C715   1.501       .  S
C253       C1003   1.498   1_554  S
C254        C616   1.489       .  S
C254        N255   1.360       .  A
C254        N259   1.353       .  A
N255        C256   1.361       .  A
C256       C1448   1.498       .  S
C256        N257   1.363       .  A
N257        C258   1.358       .  A
C258        C635   1.482       .  S
C258        N259   1.354       .  A
C260        C632   1.474       .  S
C260        C261   1.400       .  A
C260        C265   1.402       .  A
C261        C262   1.401       .  A
C261        H266   1.084       .  S
C262        C600   1.478       .  S
C262        C263   1.401       .  A
C263        C264   1.403       .  A
C263        H267   1.084       .  S
C264        C584   1.476       .  S
C264        C265   1.403       .  A
C265        H268   1.084       .  S
C269        C683   1.492       .  S
C269        N270   1.364       .  A
C269        N274   1.361       .  A
N270        C271   1.361       .  A
C271       C1291   1.481       .  S
C271        N272   1.353       .  A
N272        C273   1.352       .  A
C273        C603   1.493       .  S
C273        N274   1.360       .  A
C275        C936   1.497       .  S
C275        N276   1.364       .  A
C275        N280   1.356       .  A
N276        C277   1.366       .  A
C277       C1160   1.482       .  S
C277        N278   1.358       .  A
N278        C279   1.355       .  A
C279        C587   1.474       .  S
C279        N280   1.352       .  A
C281        C568   1.474       .  S
C281        C282   1.399       .  A
C281        C286   1.400       .  A
C282        C283   1.400       .  A
C282        H287   1.084       .  S
C283        C552   1.475       .  S
C283        C284   1.404       .  A
C284        C285   1.405       .  A
C284        H288   1.084       .  S
C285        C536   1.480       .  S
C285        C286   1.404       .  A
C286        H289   1.084       .  S
C290       C1339   1.506       .  S
C290        N291   1.356       .  A
C290        N295   1.369       .  A
N291        C292   1.353       .  A
C292        C571   1.488       .  S
C292        N293   1.352       .  A
N293        C294   1.359       .  A
C294        C651   1.487       .  S
C294        N295   1.368       .  A
C296       C1176   1.496       .  S
C296        N297   1.357       .  A
C296        N301   1.368       .  A
N297        C298   1.354       .  A
C298        C555   1.493       .  S
C298        N299   1.357       .  A
N299        C300   1.361       .  A
C300        C955   1.509       .  S
C300        N301   1.367       .  A
C302       C1512   1.509       .  S
C302        N303   1.360       .  A
C302        N307   1.373       .  A
N303        C304   1.351       .  A
C304        C539   1.483       .  S
C304        N305   1.351       .  A
N305        C306   1.360       .  A
C306        C523   1.507       .  S
C306        N307   1.374       .  A
C308        C504   1.462       .  S
C308        C309   1.395       .  A
C308        C313   1.395       .  A
C309        C310   1.400       .  A
C309        H314   1.084       .  S
C310        C472   1.465       .  S
C310        C311   1.401       .  A
C311        C312   1.401       .  A
C311        H315   1.084       .  S
C312        C488   1.466       .  S
C312        C313   1.395       .  A
C313        H316   1.085       .  S
C317       C1528   1.507       .  S
C317        N318   1.355       .  A
C317        N322   1.372       .  A
N318        C319   1.349       .  A
C319        C507   1.476       .  S
C319        N320   1.351       .  A
N320        C321   1.355       .  A
C321        C456   1.494       .  S
C321        N322   1.372       .  A
C323        C664   1.492       .  S
C323        N324   1.347       .  A
C323        N328   1.366       .  A
N324        C325   1.348       .  A
C325        C491   1.468       .  S
C325        N326   1.355       .  A
N326        C327   1.360       .  A
C327       C1307   1.501       .  S
C327        N328   1.370       .  A
C329        C875   1.497       .  S
C329        N330   1.357       .  A
C329        N334   1.376       .  A
N330        C331   1.350       .  A
C331        C475   1.474       .  S
C331        N332   1.346       .  A
N332        C333   1.353       .  A
C333       C1224   1.511       .  S
C333        N334   1.376       .  A
C335        C427   1.488       .  S
C335        C336   1.409       .  A
C335        C340   1.405       .  A
C336        C337   1.407       .  A
C336        H341   1.084       .  S
C337        C440   1.485       .  S
C337        C338   1.403       .  A
C338        C339   1.404       .  A
C338        H342   1.084       .  S
C339        C411   1.487       .  S
C339        C340   1.406       .  A
C340        H343   1.084       .  S
C344       C1496   1.477       .  S
C344        N345   1.358       .  A
C344        N349   1.358       .  A
N345        C346   1.358       .  A
C346        C443   1.498       .  S
C346        N347   1.362       .  A
N347        C348   1.363       .  A
C348        C923   1.498       .  S
C348        N349   1.362       .  A
C350       C1403   1.504       .  S
C350        N351   1.361       .  A
C350        N355   1.371       .  A
N351        C352   1.354       .  A
C352        C424   1.487       .  S
C352        N353   1.354       .  A
N353        C354   1.360       .  A
C354        C395   1.512       .  S
C354        N355   1.371       .  A
C356       C1259   1.518       .  S
C356        N357   1.362       .  A
C356        N361   1.375       .  A
N357        C358   1.354       .  A
C358        C408   1.507       .  S
C358        N359   1.356       .  A
N359        C360   1.362       .  A
C360        C699   1.519       .  S
C360        N361   1.374       .  A
O362        C370   1.288   1_655  A
O362       Co382   2.074       .  S
O363        C371   1.260       .  A
O363       Co383   1.970       .  S
O364        C372   1.263       .  A
O364       Co384   1.953       .  S
O365        C373   1.255       .  A
O365       Co385   1.960   1_565  S
O366        C372   1.283   1_545  A
O366       Co383   2.069       .  S
O367        C373   1.268       .  A
O367       Co382   2.027       .  S
O368        C371   1.271       .  A
O368       Co385   2.001   1_455  S
O369        C370   1.264       .  A
O369       Co384   1.930       .  S
C370       C1083   1.489       .  S
C371        C968   1.472       .  S
C372        C811   1.504       .  S
C373        C520   1.498       .  S
O374        C387   1.272       .  A
O374       Co382   1.966       .  S
O375        C388   1.259       .  A
O375       Co383   1.967   1_565  S
O376        C389   1.286   1_455  A
O376       Co384   2.060       .  S
O377        C390   1.268       .  A
O377       Co385   1.980       .  S
O378        C390   1.275   1_455  A
O378       Co383   1.997       .  S
O379        C389   1.274       .  A
O379       Co382   1.947       .  S
O380        C387   1.282   1_545  A
O380       Co385   2.056       .  S
O381        C388   1.261       .  A
O381       Co384   2.011       .  S
Co382       O386   2.051   1_655  S
Co383       O386   2.047   1_545  S
Co384       O386   2.018       .  S
Co385       O386   2.025   1_645  S
C387        C459   1.504       .  S
C388        C619   1.490       .  S
C389        C392   1.499   1_655  S
C390        C731   1.480       .  S
C391        C392   1.404       .  A
C391        C396   1.403       .  A
C391        H398   1.084       .  S
C392        C393   1.416   1_455  A
C393        C394   1.418   1_655  A
C393        C400   1.506       .  S
C394        C395   1.413       .  A
C394        H399   1.081       .  S
C395        C396   1.427       .  A
C396        C397   1.511       .  S
C397        H401   1.111       .  S
C397        H402   1.108       .  S
C397        H403   1.110       .  S
C400        H404   1.110       .  S
C400        H405   1.108       .  S
C400        H406   1.110       .  S
C407        C408   1.411       .  A
C407        C412   1.405       .  A
C407        H414   1.084       .  S
C408        C409   1.426       .  A
C409        C410   1.406       .  A
C409        C416   1.505       .  S
C410        C411   1.400       .  A
C410        H415   1.084       .  S
C411        C412   1.413       .  A
C412        C413   1.508       .  S
C413        H417   1.111       .  S
C413        H418   1.107       .  S
C413        H419   1.110       .  S
C416        H420   1.110       .  S
C416        H421   1.108       .  S
C416        H422   1.111       .  S
C423        C424   1.406       .  A
C423        C428   1.410       .  A
C423        H430   1.084       .  S
C424        C425   1.415       .  A
C425        C426   1.406       .  A
C425        C432   1.507       .  S
C426        C427   1.403       .  A
C426        H431   1.084       .  S
C427        C428   1.414       .  A
C428        C429   1.506       .  S
C429        H433   1.111       .  S
C429        H434   1.109       .  S
C429        H435   1.111       .  S
C432        H436   1.107       .  S
C432        H437   1.110       .  S
C432        H438   1.111       .  S
C439        C440   1.400       .  A
C439        C444   1.409       .  A
C439        H446   1.084       .  S
C440        C441   1.411       .  A
C441        C442   1.406       .  A
C441        C448   1.507       .  S
C442        C443   1.409       .  A
C442        H447   1.084       .  S
C443        C444   1.423       .  A
C444        C445   1.508       .  S
C445        H449   1.111       .  S
C445        H450   1.109       .  S
C445        H451   1.110       .  S
C448        H452   1.110       .  S
C448        H453   1.110       .  S
C448        H454   1.111       .  S
C455        C456   1.401       .  A
C455        C460   1.414       .  A
C455        H462   1.078       .  S
C456        C457   1.417       .  A
C457        C458   1.404       .  A
C457        C464   1.510       .  S
C458        C459   1.408       .  A
C458        H463   1.083       .  S
C459        C460   1.423       .  A
C460        C461   1.505   1_565  S
C461        H465   1.110       .  S
C461        H466   1.106       .  S
C461        H467   1.108       .  S
C464        H468   1.109       .  S
C464        H469   1.110       .  S
C464        H470   1.111       .  S
C471        C472   1.400       .  A
C471        C476   1.403       .  A
C471        H478   1.084       .  S
C472        C473   1.407       .  A
C473        C474   1.397       .  A
C473        C480   1.508       .  S
C474        C475   1.406       .  A
C474        H479   1.084       .  S
C475        C476   1.414       .  A
C476        C477   1.507       .  S
C477        H481   1.111       .  S
C477        H482   1.109       .  S
C477        H483   1.110       .  S
C480        H484   1.110       .  S
C480        H485   1.110       .  S
C480        H486   1.111       .  S
C487        C488   1.401       .  A
C487        C492   1.403       .  A
C487        H494   1.084       .  S
C488        C489   1.408       .  A
C489        C490   1.396       .  A
C489        C496   1.508       .  S
C490        C491   1.404       .  A
C490        H495   1.085       .  S
C491        C492   1.413       .  A
C492        C493   1.506       .  S
C493        H497   1.111       .  S
C493        H498   1.108       .  S
C493        H499   1.110       .  S
C496        H500   1.110       .  S
C496        H501   1.110       .  S
C496        H502   1.111       .  S
C503        C504   1.398       .  A
C503        C508   1.401       .  A
C503        H510   1.084       .  S
C504        C505   1.405       .  A
C505        C506   1.397       .  A
C505        C512   1.508       .  S
C506        C507   1.407       .  A
C506        H511   1.084       .  S
C507        C508   1.417       .  A
C508        C509   1.508       .  S
C509        H513   1.111       .  S
C509        H514   1.108       .  S
C509        H515   1.110       .  S
C512        H516   1.110       .  S
C512        H517   1.110       .  S
C512        H518   1.111       .  S
C519        C520   1.407       .  A
C519        C524   1.410       .  A
C519        H526   1.084       .  S
C520        C521   1.419   1_565  A
C521        C522   1.404       .  A
C521        C528   1.509       .  S
C522        C523   1.410       .  A
C522        H527   1.083       .  S
C523        C524   1.417   1_545  A
C524        C525   1.496       .  S
C525        H529   1.111       .  S
C525        H530   1.096       .  S
C525        H531   1.110       .  S
C528        H532   1.108       .  S
C528        H533   1.110       .  S
C528        H534   1.111       .  S
C535        C536   1.402       .  A
C535        C540   1.406       .  A
C535        H542   1.084       .  S
C536        C537   1.412       .  A
C537        C538   1.403       .  A
C537        C544   1.507       .  S
C538        C539   1.405       .  A
C538        H543   1.084       .  S
C539        C540   1.417       .  A
C540        C541   1.507       .  S
C541        H545   1.111       .  S
C541        H546   1.109       .  S
C541        H547   1.111       .  S
C544        H548   1.108       .  S
C544        H549   1.110       .  S
C544        H550   1.111       .  S
C551        C552   1.399       .  A
C551        C556   1.406       .  A
C551        H558   1.084       .  S
C552        C553   1.407       .  A
C553        C554   1.403       .  A
C553        C560   1.506       .  S
C554        C555   1.409       .  A
C554        H559   1.084       .  S
C555        C556   1.424       .  A
C556        C557   1.509       .  S
C557        H561   1.111       .  S
C557        H562   1.109       .  S
C557        H563   1.110       .  S
C560        H564   1.110       .  S
C560        H565   1.110       .  S
C560        H566   1.111       .  S
C567        C568   1.400       .  A
C567        C572   1.406       .  A
C567        H574   1.084       .  S
C568        C569   1.407       .  A
C569        C570   1.400       .  A
C569        C576   1.507       .  S
C570        C571   1.408       .  A
C570        H575   1.082       .  S
C571        C572   1.420       .  A
C572        C573   1.507       .  S
C573        H577   1.111       .  S
C573        H578   1.109       .  S
C573        H579   1.110       .  S
C576        H580   1.110       .  S
C576        H581   1.110       .  S
C576        H582   1.111       .  S
C583        C584   1.403       .  A
C583        C588   1.403       .  A
C583        H590   1.084       .  S
C584        C585   1.412       .  A
C585        C586   1.402       .  A
C585        C592   1.507       .  S
C586        C587   1.404       .  A
C586        H591   1.084       .  S
C587        C588   1.412       .  A
C588        C589   1.507       .  S
C589        H593   1.111       .  S
C589        H594   1.109       .  S
C589        H595   1.111       .  S
C592        H596   1.109       .  S
C592        H597   1.110       .  S
C592        H598   1.111       .  S
C599        C600   1.398       .  A
C599        C604   1.401       .  A
C599        H606   1.085       .  S
C600        C601   1.412       .  A
C601        C602   1.403       .  A
C601        C608   1.508       .  S
C602        C603   1.409       .  A
C602        H607   1.084       .  S
C603        C604   1.425       .  A
C604        C605   1.510       .  S
C605        H609   1.111       .  S
C605        H610   1.110       .  S
C605        H611   1.110       .  S
C608        H612   1.111       .  S
C608        H613   1.107       .  S
C608        H614   1.110       .  S
C615        C616   1.406   1_565  A
C615        C620   1.407       .  A
C615        H622   1.083       .  S
C616        C617   1.419       .  A
C617        C618   1.400       .  A
C617        C624   1.510       .  S
C618        C619   1.405   1_545  A
C618        H623   1.084       .  S
C619        C620   1.420       .  A
C620        C621   1.509       .  S
C621        H625   1.111       .  S
C621        H626   1.111       .  S
C621        H627   1.107       .  S
C624        H628   1.110       .  S
C624        H629   1.110       .  S
C624        H630   1.111       .  S
C631        C632   1.401       .  A
C631        C636   1.405       .  A
C631        H638   1.084       .  S
C632        C633   1.408       .  A
C633        C634   1.401       .  A
C633        C640   1.507       .  S
C634        C635   1.407       .  A
C634        H639   1.084       .  S
C635        C636   1.417       .  A
C636        C637   1.507       .  S
C637        H641   1.111       .  S
C637        H642   1.109       .  S
C637        H643   1.111       .  S
C640        H644   1.110       .  S
C640        H645   1.111       .  S
C640        H646   1.111       .  S
C647        C648   1.413   1_455  A
C647        C652   1.415       .  A
C647        H654   1.083       .  S
C648        C649   1.425       .  A
C649        C650   1.399       .  A
C649        C656   1.508       .  S
C650        C651   1.398       .  A
C650        H655   1.085       .  S
C651        C652   1.412   1_655  A
C652        C653   1.506       .  S
C653        H657   1.111       .  S
C653        H658   1.106       .  S
C653        H659   1.110       .  S
C656        H660   1.107       .  S
C656        H661   1.110       .  S
C656        H662   1.111       .  S
C663        C664   1.405       .  A
C663        C668   1.406       .  A
C663        H670   1.084       .  S
C664        C665   1.428       .  A
C665        C666   1.402       .  A
C665        C672   1.511       .  S
C666        C667   1.394       .  A
C666        H671   1.085       .  S
C667        C668   1.412       .  A
C668        C669   1.506   1_655  S
C669        H673   1.111       .  S
C669        H674   1.110       .  S
C669        H675   1.107       .  S
C672        H676   1.110       .  S
C672        H677   1.110       .  S
C672        H678   1.111       .  S
C679        C680   1.398       .  A
C679        C684   1.406       .  A
C679        H686   1.082       .  S
C680        C681   1.411       .  A
C681        C682   1.407       .  A
C681        C688   1.507   1_455  S
C682        C683   1.408       .  A
C682        H687   1.084       .  S
C683        C684   1.421       .  A
C684        C685   1.508       .  S
C685        H689   1.111       .  S
C685        H690   1.109       .  S
C685        H691   1.110       .  S
C688        H692   1.110       .  S
C688        H693   1.108       .  S
C688        H694   1.111       .  S
C695        C696   1.405   1_556  A
C695        C700   1.411   1_556  A
C695        H702   1.084       .  S
C696        C697   1.420       .  A
C697        C698   1.407       .  A
C697        C704   1.510       .  S
C698        C699   1.412       .  A
C698        H703   1.083       .  S
C699        C700   1.422       .  A
C700        C701   1.493   1_554  S
C701        H705   1.111       .  S
C701        H706   1.101   1_556  S
C701        H707   1.110       .  S
C704        H708   1.109       .  S
C704        H709   1.111       .  S
C704        H710   1.111       .  S
C711        C712   1.407       .  A
C711        C716   1.417       .  A
C711        H718   1.084       .  S
C712        C713   1.419       .  A
C713        C714   1.403       .  A
C713        C720   1.511       .  S
C714        C715   1.407       .  A
C714        H719   1.084       .  S
C715        C716   1.419       .  A
C716        C717   1.505   1_554  S
C717        H721   1.111       .  S
C717        H722   1.109       .  S
C717        H723   1.109       .  S
C720        H724   1.109       .  S
C720        H725   1.111       .  S
C720        H726   1.111       .  S
C727        C728   1.404       .  A
C727        C732   1.412       .  A
C727        H734   1.084       .  S
C728        C729   1.416       .  A
C729        C730   1.402       .  A
C729        C736   1.509       .  S
C730        C731   1.400       .  A
C730        H735   1.079       .  S
C731        C732   1.417       .  A
C732        C733   1.505   1_655  S
C733        H737   1.111       .  S
C733        H738   1.110       .  S
C733        H739   1.106       .  S
C736        H740   1.109       .  S
C736        H741   1.110       .  S
C736        H742   1.111       .  S
C743        C744   1.405       .  A
C743        C748   1.402       .  A
C743        H750   1.084       .  S
C744        C745   1.420       .  A
C745        C746   1.403       .  A
C745        C752   1.509       .  S
C746        C747   1.398       .  A
C746        H751   1.084       .  S
C747        C748   1.408       .  A
C748        C749   1.506       .  S
C749        H753   1.111       .  S
C749        H754   1.110       .  S
C749        H755   1.110       .  S
C752        H756   1.109       .  S
C752        H757   1.111       .  S
C752        H758   1.111       .  S
C759        C760   1.401       .  A
C759        C764   1.403       .  A
C759        H766   1.084       .  S
C760        C761   1.414       .  A
C761        C762   1.404       .  A
C761        C768   1.508       .  S
C762        C763   1.403       .  A
C762        H767   1.084       .  S
C763        C764   1.415       .  A
C764        C765   1.508       .  S
C765        H769   1.111       .  S
C765        H770   1.109       .  S
C765        H771   1.110       .  S
C768        H772   1.108       .  S
C768        H773   1.110       .  S
C768        H774   1.110       .  S
C775        C776   1.398       .  A
C775        C780   1.402       .  A
C775        H782   1.085       .  S
C776        C777   1.406       .  A
C777        C778   1.400       .  A
C777        C784   1.507       .  S
C778        C779   1.410       .  A
C778        H783   1.083       .  S
C779        C780   1.422       .  A
C780        C781   1.509       .  S
C781        H785   1.111       .  S
C781        H786   1.109       .  S
C781        H787   1.110       .  S
C784        H788   1.111       .  S
C784        H789   1.110       .  S
C784        H790   1.111       .  S
C791        C792   1.406       .  A
C791        C796   1.412       .  A
C791        H798   1.084       .  S
C792        C793   1.410   1_655  A
C793        C794   1.398       .  A
C793        C800   1.509       .  S
C794        C795   1.412       .  A
C794        H799   1.083       .  S
C795        C796   1.422   1_455  A
C796        C797   1.504       .  S
C797        H801   1.111       .  S
C797        H802   1.104   1_655  S
C797        H803   1.110       .  S
C800        H804   1.111       .  S
C800        H805   1.109       .  S
C800        H806   1.110       .  S
C807        C808   1.411       .  A
C807        C812   1.416       .  A
C807        H814   1.080       .  S
C808        C809   1.424       .  A
C809        C810   1.402       .  A
C809        C816   1.511       .  S
C810        C811   1.407       .  A
C810        H815   1.083       .  S
C811        C812   1.419       .  A
C812        C813   1.507   1_565  S
C813        H817   1.110       .  S
C813        H818   1.110       .  S
C813        H819   1.107       .  S
C816        H820   1.108       .  S
C816        H821   1.110       .  S
C816        H822   1.111       .  S
C823        C824   1.405       .  A
C823        C828   1.399       .  A
C823        H830   1.084       .  S
C824        C825   1.417       .  A
C825        C826   1.405       .  A
C825        C832   1.508       .  S
C826        C827   1.401       .  A
C826        H831   1.084       .  S
C827        C828   1.408       .  A
C828        C829   1.507       .  S
C829        H833   1.111       .  S
C829        H834   1.110       .  S
C829        H835   1.110       .  S
C832        H836   1.108       .  S
C832        H837   1.110       .  S
C832        H838   1.111       .  S
C839        C840   1.409       .  A
C839        C844   1.402       .  A
C839        H846   1.082       .  S
C840        C841   1.424       .  A
C841        C842   1.402       .  A
C841        C848   1.509       .  S
C842        C843   1.397       .  A
C842        H847   1.085       .  S
C843        C844   1.406       .  A
C844        C845   1.507       .  S
C845        H849   1.111       .  S
C845        H850   1.110       .  S
C845        H851   1.110       .  S
C848        H852   1.107       .  S
C848        H853   1.110       .  S
C848        H854   1.111       .  S
C855        C856   1.398       .  A
C855        C860   1.402       .  A
C855        H862   1.084       .  S
C856        C857   1.408       .  A
C857        C858   1.402       .  A
C857        C864   1.507       .  S
C858        C859   1.408       .  A
C858        H863   1.084       .  S
C859        C860   1.420       .  A
C860        C861   1.509       .  S
C861        H865   1.111       .  S
C861        H866   1.109       .  S
C861        H867   1.110       .  S
C864        H868   1.110       .  S
C864        H869   1.110       .  S
C864        H870   1.111       .  S
C871        C872   1.406       .  A
C871        C876   1.403       .  A
C871        H878   1.084       .  S
C872        C873   1.423   1_554  A
C873        C874   1.418       .  A
C873        C880   1.506       .  S
C874        C875   1.406   1_556  A
C874        H879   1.084       .  S
C875        C876   1.419       .  A
C876        C877   1.511       .  S
C877        H881   1.111       .  S
C877        H882   1.108       .  S
C877        H883   1.110       .  S
C880        H884   1.110       .  S
C880        H885   1.109       .  S
C880        H886   1.111       .  S
C887        C888   1.411       .  A
C887        C892   1.408       .  A
C887        H894   1.083       .  S
C888        C889   1.415       .  A
C889        C890   1.402       .  A
C889        C896   1.494   1_556  S
C890        C891   1.406       .  A
C890        H895   1.084   1_556  S
C891        C892   1.419       .  A
C892        C893   1.508       .  S
C893        H897   1.111       .  S
C893        H898   1.106       .  S
C893        H899   1.110       .  S
C896        H900   1.106   1_554  S
C896        H901   1.110       .  S
C896        H902   1.111       .  S
C903        C904   1.409       .  A
C903        C908   1.418       .  A
C903        H910   1.084   1_545  S
C904        C905   1.411       .  A
C905        C906   1.403       .  A
C905        C912   1.507       .  S
C906        C907   1.410       .  A
C906        H911   1.084       .  S
C907        C908   1.417       .  A
C908        C909   1.503       .  S
C909        H913   1.111   1_545  S
C909        H914   1.107       .  S
C909        H915   1.110       .  S
C912        H916   1.111       .  S
C912        H917   1.108       .  S
C912        H918   1.110       .  S
C919        C920   1.402   1_545  A
C919        C924   1.408   1_545  A
C919        H926   1.085       .  S
C920        C921   1.408       .  A
C921        C922   1.405       .  A
C921        C928   1.505       .  S
C922        C923   1.410       .  A
C922        H927   1.083       .  S
C923        C924   1.423       .  A
C924        C925   1.509   1_565  S
C925        H929   1.111       .  S
C925        H930   1.109       .  S
C925        H931   1.110       .  S
C928        H932   1.107       .  S
C928        H933   1.110       .  S
C928        H934   1.111       .  S
C935        C936   1.410   1_556  A
C935        C940   1.411       .  A
C935        H942   1.083       .  S
C936        C937   1.423       .  A
C937        C938   1.400   1_554  A
C937        C944   1.510       .  S
C938        C939   1.402       .  A
C938        H943   1.085       .  S
C939        C940   1.415       .  A
C940        C941   1.507       .  S
C941        H945   1.108       .  S
C941        H946   1.110       .  S
C941        H947   1.103       .  S
C944        H948   1.110       .  S
C944        H949   1.109       .  S
C944        H950   1.111       .  S
C951        C952   1.407   1_554  A
C951        C956   1.411   1_554  A
C951        H958   1.083       .  S
C952        C953   1.420       .  A
C953        C954   1.406       .  A
C953        C960   1.509       .  S
C954        C955   1.410       .  A
C954        H959   1.083       .  S
C955        C956   1.419       .  A
C956        C957   1.500   1_556  S
C957        H961   1.110       .  S
C957        H962   1.104   1_554  S
C957        H963   1.110       .  S
C960        H964   1.106       .  S
C960        H965   1.110       .  S
C960        H966   1.111       .  S
C967        C968   1.399       .  A
C967        C972   1.404       .  A
C967        H974   1.085       .  S
C968        C969   1.416       .  A
C969        C970   1.407       .  A
C969        C976   1.505   1_455  S
C970        C971   1.402       .  A
C970        H975   1.084       .  S
C971        C972   1.423       .  A
C972        C973   1.510       .  S
C973        H977   1.111       .  S
C973        H978   1.109       .  S
C973        H979   1.110       .  S
C976        H980   1.110       .  S
C976        H981   1.105       .  S
C976        H982   1.111       .  S
C983        C984   1.412       .  A
C983        C988   1.404       .  A
C983        H990   1.083       .  S
C984        C985   1.423       .  A
C985        C986   1.418       .  A
C985        C992   1.504       .  S
C986        C987   1.407       .  A
C986        H991   1.084   1_545  S
C987        C988   1.414       .  A
C988        C989   1.510       .  S
C989        H993   1.111       .  S
C989        H994   1.107       .  S
C989        H995   1.110       .  S
C992        H996   1.109       .  S
C992        H997   1.110       .  S
C992        H998   1.110   1_545  S
C999       C1000   1.404       .  A
C999       C1004   1.412   1_556  A
C999       H1006   1.083   1_556  S
C1000      C1001   1.422       .  A
C1001      C1002   1.401       .  A
C1001      C1008   1.512       .  S
C1002      C1003   1.405       .  A
C1002      H1007   1.083       .  S
C1003      C1004   1.423   1_556  A
C1004      C1005   1.507       .  S
C1005      H1009   1.111       .  S
C1005      H1010   1.106       .  S
C1005      H1011   1.108       .  S
C1008      H1012   1.107       .  S
C1008      H1013   1.110       .  S
C1008      H1014   1.111       .  S
C1015      C1016   1.399       .  A
C1015      C1020   1.400       .  A
C1015      H1022   1.084       .  S
C1016      C1017   1.411       .  A
C1017      C1018   1.400       .  A
C1017      C1024   1.507       .  S
C1018      C1019   1.401       .  A
C1018      H1023   1.084       .  S
C1019      C1020   1.415       .  A
C1020      C1021   1.509       .  S
C1021      H1025   1.111       .  S
C1021      H1026   1.109       .  S
C1021      H1027   1.111       .  S
C1024      H1028   1.109       .  S
C1024      H1029   1.110       .  S
C1024      H1030   1.111       .  S
C1031      C1032   1.398       .  A
C1031      C1036   1.401       .  A
C1031      H1038   1.084       .  S
C1032      C1033   1.408       .  A
C1033      C1034   1.401       .  A
C1033      C1040   1.506       .  S
C1034      C1035   1.404       .  A
C1034      H1039   1.084       .  S
C1035      C1036   1.417       .  A
C1036      C1037   1.508       .  S
C1037      H1041   1.111       .  S
C1037      H1042   1.109       .  S
C1037      H1043   1.110       .  S
C1040      H1044   1.110       .  S
C1040      H1045   1.110       .  S
C1040      H1046   1.111       .  S
C1047      C1048   1.398       .  A
C1047      C1052   1.402       .  A
C1047      H1054   1.084       .  S
C1048      C1049   1.407       .  A
C1049      C1050   1.398       .  A
C1049      C1056   1.507       .  S
C1050      C1051   1.405       .  A
C1050      H1055   1.084       .  S
C1051      C1052   1.418       .  A
C1052      C1053   1.508       .  S
C1053      H1057   1.111       .  S
C1053      H1058   1.107       .  S
C1053      H1059   1.110       .  S
C1056      H1060   1.110       .  S
C1056      H1061   1.110       .  S
C1056      H1062   1.111       .  S
C1063      C1064   1.405       .  A
C1063      C1068   1.411   1_554  A
C1063      H1070   1.084       .  S
C1064      C1065   1.421   1_554  A
C1065      C1066   1.410       .  A
C1065      C1072   1.510       .  S
C1066      C1067   1.411       .  A
C1066      H1071   1.078       .  S
C1067      C1068   1.419       .  A
C1068      C1069   1.490   1_556  S
C1069      H1073   1.110       .  S
C1069      H1074   1.109   1_554  S
C1069      H1075   1.108       .  S
C1072      H1076   1.107       .  S
C1072      H1077   1.110       .  S
C1072      H1078   1.111       .  S
C1079      C1080   1.410   1_455  A
C1079      C1084   1.413       .  A
C1079      H1086   1.083       .  S
C1080      C1081   1.427       .  A
C1081      C1082   1.399       .  A
C1081      C1088   1.512       .  S
C1082      C1083   1.399   1_655  A
C1082      H1087   1.085       .  S
C1083      C1084   1.417       .  A
C1084      C1085   1.507       .  S
C1085      H1089   1.111       .  S
C1085      H1090   1.110       .  S
C1085      H1091   1.107       .  S
C1088      H1092   1.110       .  S
C1088      H1093   1.110       .  S
C1088      H1094   1.111       .  S
C1095      C1096   1.397       .  A
C1095      C1100   1.406       .  A
C1095      H1102   1.085       .  S
C1096      C1097   1.407       .  A
C1097      C1098   1.406       .  A
C1097      C1104   1.506       .  S
C1098      C1099   1.412       .  A
C1098      H1103   1.082       .  S
C1099      C1100   1.426       .  A
C1100      C1101   1.505       .  S
C1101      H1105   1.111       .  S
C1101      H1106   1.107       .  S
C1101      H1107   1.110       .  S
C1104      H1108   1.110       .  S
C1104      H1109   1.110       .  S
C1104      H1110   1.111       .  S
C1111      C1112   1.404       .  A
C1111      C1116   1.404       .  A
C1111      H1118   1.084       .  S
C1112      C1113   1.417       .  A
C1113      C1114   1.407       .  A
C1113      C1120   1.507       .  S
C1114      C1115   1.402       .  A
C1114      H1119   1.084       .  S
C1115      C1116   1.412       .  A
C1116      C1117   1.507       .  S
C1117      H1121   1.111       .  S
C1117      H1122   1.109       .  S
C1117      H1123   1.110       .  S
C1120      H1124   1.108       .  S
C1120      H1125   1.110       .  S
C1120      H1126   1.111       .  S
C1127      C1128   1.408       .  A
C1127      C1132   1.405       .  A
C1127      H1134   1.081       .  S
C1128      C1129   1.423   1_565  A
C1129      C1130   1.411       .  A
C1129      C1136   1.508       .  S
C1130      C1131   1.406       .  A
C1130      H1135   1.084       .  S
C1131      C1132   1.416   1_545  A
C1132      C1133   1.509       .  S
C1133      H1137   1.111       .  S
C1133      H1138   1.108       .  S
C1133      H1139   1.111       .  S
C1136      H1140   1.105       .  S
C1136      H1141   1.110       .  S
C1136      H1142   1.111       .  S
C1143      C1144   1.411       .  A
C1143      C1148   1.402       .  A
C1143      H1150   1.084       .  S
C1144      C1145   1.423       .  A
C1145      C1146   1.410       .  A
C1145      C1152   1.507       .  S
C1146      C1147   1.402       .  A
C1146      H1151   1.084       .  S
C1147      C1148   1.412       .  A
C1148      C1149   1.509       .  S
C1149      H1153   1.110       .  S
C1149      H1154   1.110       .  S
C1149      H1155   1.107       .  S
C1152      H1156   1.108       .  S
C1152      H1157   1.110       .  S
C1152      H1158   1.111       .  S
C1159      C1160   1.403       .  A
C1159      C1164   1.403       .  A
C1159      H1166   1.084       .  S
C1160      C1161   1.413       .  A
C1161      C1162   1.406       .  A
C1161      C1168   1.501       .  S
C1162      C1163   1.402       .  A
C1162      H1167   1.085       .  S
C1163      C1164   1.412       .  A
C1164      C1165   1.504       .  S
C1165      H1169   1.111       .  S
C1165      H1170   1.107       .  S
C1165      H1171   1.110       .  S
C1168      H1172   1.105       .  S
C1168      H1173   1.110       .  S
C1168      H1174   1.111       .  S
C1175      C1176   1.411       .  A
C1175      C1180   1.405       .  A
C1175      H1182   1.084       .  S
C1176      C1177   1.419       .  A
C1177      C1178   1.406       .  A
C1177      C1184   1.505       .  S
C1178      C1179   1.403       .  A
C1178      H1183   1.085       .  S
C1179      C1180   1.408       .  A
C1180      C1181   1.505       .  S
C1181      H1185   1.110       .  S
C1181      H1186   1.107       .  S
C1181      H1187   1.109       .  S
C1184      H1188   1.109       .  S
C1184      H1189   1.104       .  S
C1184      H1190   1.111       .  S
C1191      C1192   1.402       .  A
C1191      C1196   1.408       .  A
C1191      H1198   1.084       .  S
C1192      C1193   1.419       .  A
C1193      C1194   1.409       .  A
C1193      C1200   1.509       .  S
C1194      C1195   1.412       .  A
C1194      H1199   1.083       .  S
C1195      C1196   1.419       .  A
C1196      C1197   1.491       .  S
C1197      H1201   1.111       .  S
C1197      H1202   1.108       .  S
C1197      H1203   1.110       .  S
C1200      H1204   1.109       .  S
C1200      H1205   1.111       .  S
C1200      H1206   1.111       .  S
C1207      C1208   1.407       .  A
C1207      C1212   1.409       .  A
C1207      H1214   1.083       .  S
C1208      C1209   1.424       .  A
C1209      C1210   1.418       .  A
C1209      C1216   1.509       .  S
C1210      C1211   1.410       .  A
C1210      H1215   1.083       .  S
C1211      C1212   1.427       .  A
C1212      C1213   1.509       .  S
C1213      H1217   1.111       .  S
C1213      H1218   1.109       .  S
C1213      H1219   1.110       .  S
C1216      H1220   1.106       .  S
C1216      H1221   1.105   1_556  S
C1216      H1222   1.111       .  S
C1223      C1224   1.416       .  A
C1223      C1228   1.398       .  A
C1223      H1230   1.083       .  S
C1224      C1225   1.417       .  A
C1225      C1226   1.410       .  A
C1225      C1232   1.491       .  S
C1226      C1227   1.403       .  A
C1226      H1231   1.083       .  S
C1227      C1228   1.408       .  A
C1228      C1229   1.509       .  S
C1229      H1233   1.110       .  S
C1229      H1234   1.111       .  S
C1229      H1235   1.109       .  S
C1232      H1236   1.107       .  S
C1232      H1237   1.109       .  S
C1232      H1238   1.111       .  S
C1239      C1240   1.407       .  A
C1239      C1244   1.399       .  A
C1239      H1246   1.083       .  S
C1240      C1241   1.422       .  A
C1241      C1242   1.419       .  A
C1241      C1248   1.505       .  S
C1242      C1243   1.408       .  A
C1242      H1247   1.084       .  S
C1243      C1244   1.416       .  A
C1244      C1245   1.512       .  S
C1245      H1249   1.111       .  S
C1245      H1250   1.108       .  S
C1245      H1251   1.111       .  S
C1248      H1252   1.111       .  S
C1248      H1253   1.110       .  S
C1248      H1254   1.111       .  S
C1255      C1256   1.406       .  A
C1255      C1260   1.410       .  A
C1255      H1262   1.084       .  S
C1256      C1257   1.415       .  A
C1257      C1258   1.404       .  A
C1257      C1264   1.510       .  S
C1258      C1259   1.412       .  A
C1258      H1263   1.076       .  S
C1259      C1260   1.420       .  A
C1260      C1261   1.492       .  S
C1261      H1265   1.111       .  S
C1261      H1266   1.101       .  S
C1261      H1267   1.110       .  S
C1264      H1268   1.108       .  S
C1264      H1269   1.111       .  S
C1264      H1270   1.111       .  S
C1271      C1272   1.404       .  A
C1271      C1276   1.401       .  A
C1271      H1278   1.084       .  S
C1272      C1273   1.419       .  A
C1273      C1274   1.415       .  A
C1273      C1280   1.506       .  S
C1274      C1275   1.406       .  A
C1274      H1279   1.084       .  S
C1275      C1276   1.419       .  A
C1276      C1277   1.511       .  S
C1277      H1281   1.111       .  S
C1277      H1282   1.108       .  S
C1277      H1283   1.111       .  S
C1280      H1284   1.110       .  S
C1280      H1285   1.110       .  S
C1280      H1286   1.111       .  S
C1287      C1288   1.404       .  A
C1287      C1292   1.410       .  A
C1287      H1294   1.084       .  S
C1288      C1289   1.413       .  A
C1289      C1290   1.398       .  A
C1289      C1296   1.503       .  S
C1290      C1291   1.402       .  A
C1290      H1295   1.084       .  S
C1291      C1292   1.415       .  A
C1292      C1293   1.505       .  S
C1293      H1297   1.109       .  S
C1293      H1298   1.111       .  S
C1293      H1299   1.111       .  S
C1296      H1300   1.107       .  S
C1296      H1301   1.109       .  S
C1296      H1302   1.111       .  S
C1303      C1304   1.397       .  A
C1303      C1308   1.408       .  A
C1303      H1310   1.085       .  S
C1304      C1305   1.412       .  A
C1305      C1306   1.405       .  A
C1305      C1312   1.508       .  S
C1306      C1307   1.408       .  A
C1306      H1311   1.084       .  S
C1307      C1308   1.428       .  A
C1308      C1309   1.508       .  S
C1309      H1313   1.111       .  S
C1309      H1314   1.108       .  S
C1309      H1315   1.110       .  S
C1312      H1316   1.110       .  S
C1312      H1317   1.109   1_655  S
C1312      H1318   1.111       .  S
C1319      C1320   1.405       .  A
C1319      C1324   1.399       .  A
C1319      H1326   1.084       .  S
C1320      C1321   1.420       .  A
C1321      C1322   1.412       .  A
C1321      C1328   1.507       .  S
C1322      C1323   1.406       .  A
C1322      H1327   1.082       .  S
C1323      C1324   1.420       .  A
C1324      C1325   1.512       .  S
C1325      H1329   1.108       .  S
C1325      H1330   1.111       .  S
C1325      H1331   1.111       .  S
C1328      H1332   1.110       .  S
C1328      H1333   1.109       .  S
C1328      H1334   1.111       .  S
C1335      C1336   1.400       .  A
C1335      C1340   1.399       .  A
C1335      H1342   1.085       .  S
C1336      C1337   1.416       .  A
C1337      C1338   1.414       .  A
C1337      C1344   1.505       .  S
C1338      C1339   1.412       .  A
C1338      H1343   1.082       .  S
C1339      C1340   1.428       .  A
C1340      C1341   1.512       .  S
C1341      H1345   1.111       .  S
C1341      H1346   1.108       .  S
C1341      H1347   1.110       .  S
C1344      H1348   1.110       .  S
C1344      H1349   1.106   1_655  S
C1344      H1350   1.111       .  S
C1351      C1352   1.408       .  A
C1351      C1356   1.402       .  A
C1351      H1358   1.083       .  S
C1352      C1353   1.417       .  A
C1353      C1354   1.416       .  A
C1353      C1360   1.507       .  S
C1354      C1355   1.414       .  A
C1354      H1359   1.083       .  S
C1355      C1356   1.422       .  A
C1356      C1357   1.510       .  S
C1357      H1361   1.111       .  S
C1357      H1362   1.106       .  S
C1357      H1363   1.110       .  S
C1360      H1364   1.106       .  S
C1360      H1365   1.110       .  S
C1360      H1366   1.111       .  S
C1367      C1368   1.410       .  A
C1367      C1372   1.412       .  A
C1367      H1374   1.084       .  S
C1368      C1369   1.414       .  A
C1369      C1370   1.405       .  A
C1369      C1376   1.509       .  S
C1370      C1371   1.411       .  A
C1370      H1375   1.083       .  S
C1371      C1372   1.416       .  A
C1372      C1373   1.501       .  S
C1373      H1377   1.110       .  S
C1373      H1378   1.107       .  S
C1373      H1379   1.110       .  S
C1376      H1380   1.108       .  S
C1376      H1381   1.111       .  S
C1376      H1382   1.111       .  S
C1383      C1384   1.410       .  A
C1383      C1388   1.406       .  A
C1383      H1390   1.083       .  S
C1384      C1385   1.422       .  A
C1385      C1386   1.412       .  A
C1385      C1392   1.504       .  S
C1386      C1387   1.409       .  A
C1386      H1391   1.084       .  S
C1387      C1388   1.420       .  A
C1388      C1389   1.510       .  S
C1389      H1393   1.111       .  S
C1389      H1394   1.108       .  S
C1389      H1395   1.110       .  S
C1392      H1396   1.108       .  S
C1392      H1397   1.109       .  S
C1392      H1398   1.111       .  S
C1399      C1400   1.406       .  A
C1399      C1404   1.403       .  A
C1399      H1406   1.084       .  S
C1400      C1401   1.420       .  A
C1401      C1402   1.417       .  A
C1401      C1408   1.507       .  S
C1402      C1403   1.409       .  A
C1402      H1407   1.083       .  S
C1403      C1404   1.422       .  A
C1404      C1405   1.511       .  S
C1405      H1409   1.111       .  S
C1405      H1410   1.109       .  S
C1405      H1411   1.111       .  S
C1408      H1412   1.110       .  S
C1408      H1413   1.109       .  S
C1408      H1414   1.111       .  S
C1415      C1416   1.401       .  A
C1415      C1420   1.408       .  A
C1415      H1422   1.084       .  S
C1416      C1417   1.423       .  A
C1417      C1418   1.406       .  A
C1417      C1424   1.510       .  S
C1418      C1419   1.400       .  A
C1418      H1423   1.084       .  S
C1419      C1420   1.418       .  A
C1420      C1421   1.504       .  S
C1421      H1425   1.110       .  S
C1421      H1426   1.109       .  S
C1421      H1427   1.111       .  S
C1424      H1428   1.109       .  S
C1424      H1429   1.110       .  S
C1424      H1430   1.111       .  S
C1431      C1432   1.401       .  A
C1431      C1436   1.405       .  A
C1431      H1438   1.084       .  S
C1432      C1433   1.413       .  A
C1433      C1434   1.410       .  A
C1433      C1440   1.506       .  S
C1434      C1435   1.406       .  A
C1434      H1439   1.084       .  S
C1435      C1436   1.418       .  A
C1436      C1437   1.508       .  S
C1437      H1441   1.111       .  S
C1437      H1442   1.109       .  S
C1437      H1443   1.111       .  S
C1440      H1444   1.110       .  S
C1440      H1445   1.110       .  S
C1440      H1446   1.110       .  S
C1447      C1448   1.407       .  A
C1447      C1452   1.401       .  A
C1447      H1454   1.083       .  S
C1448      C1449   1.422       .  A
C1449      C1450   1.407       .  A
C1449      C1456   1.504   1_545  S
C1450      C1451   1.402       .  A
C1450      H1455   1.084   1_545  S
C1451      C1452   1.413       .  A
C1452      C1453   1.507       .  S
C1453      H1457   1.110       .  S
C1453      H1458   1.110       .  S
C1453      H1459   1.109       .  S
C1456      H1460   1.110       .  S
C1456      H1461   1.107   1_565  S
C1456      H1462   1.107       .  S
C1463      C1464   1.405       .  A
C1463      C1468   1.399       .  A
C1463      H1470   1.084       .  S
C1464      C1465   1.421       .  A
C1465      C1466   1.412       .  A
C1465      C1472   1.507       .  S
C1466      C1467   1.404       .  A
C1466      H1471   1.084       .  S
C1467      C1468   1.416       .  A
C1468      C1469   1.511       .  S
C1469      H1473   1.111       .  S
C1469      H1474   1.107       .  S
C1469      H1475   1.110       .  S
C1472      H1476   1.110       .  S
C1472      H1477   1.109       .  S
C1472      H1478   1.111       .  S
C1479      C1480   1.416       .  A
C1479      C1484   1.412       .  A
C1479      H1486   1.084       .  S
C1480      C1481   1.417       .  A
C1481      C1482   1.411       .  A
C1481      C1488   1.507       .  S
C1482      C1483   1.416       .  A
C1482      H1487   1.082       .  S
C1483      C1484   1.415       .  A
C1484      C1485   1.506       .  S
C1485      H1489   1.106       .  S
C1485      H1490   1.111       .  S
C1485      H1491   1.109       .  S
C1488      H1492   1.107       .  S
C1488      H1493   1.110       .  S
C1488      H1494   1.111       .  S
C1495      C1496   1.408       .  A
C1495      C1500   1.415       .  A
C1495      H1502   1.084       .  S
C1496      C1497   1.407       .  A
C1497      C1498   1.398       .  A
C1497      C1504   1.508       .  S
C1498      C1499   1.405       .  A
C1498      H1503   1.084       .  S
C1499      C1500   1.411       .  A
C1500      C1501   1.503       .  S
C1501      H1505   1.111       .  S
C1501      H1506   1.109       .  S
C1501      H1507   1.110       .  S
C1504      H1508   1.110       .  S
C1504      H1509   1.110   1_565  S
C1504      H1510   1.111   1_565  S
C1511      C1512   1.407       .  A
C1511      C1516   1.396       .  A
C1511      H1518   1.083       .  S
C1512      C1513   1.419       .  A
C1513      C1514   1.418       .  A
C1513      C1520   1.498       .  S
C1514      C1515   1.405       .  A
C1514      H1519   1.084       .  S
C1515      C1516   1.417       .  A
C1516      C1517   1.510       .  S
C1517      H1521   1.111       .  S
C1517      H1522   1.110       .  S
C1517      H1523   1.108       .  S
C1520      H1524   1.092       .  S
C1520      H1525   1.110       .  S
C1520      H1526   1.111       .  S
C1527      C1528   1.415       .  A
C1527      C1532   1.403       .  A
C1527      H1534   1.083       .  S
C1528      C1529   1.416       .  A
C1529      C1530   1.407       .  A
C1529      C1536   1.497       .  S
C1530      C1531   1.407       .  A
C1530      H1535   1.084       .  S
C1531      C1532   1.411       .  A
C1532      C1533   1.509       .  S
C1533      H1537   1.111       .  S
C1533      H1538   1.106       .  S
C1533      H1539   1.110       .  S
C1536      H1540   1.103       .  S
C1536      H1541   1.109       .  S
C1536      H1542   1.111       .  S
