geometry optimzed in LAMMPS
_audit_creation_date              2020-11-30 
_audit_creation_method            'lammps2cif' 
_symmetry_space_group_name_H-M    'P1' 
_symmetry_Int_Tables_number       1 
_symmetry_cell_setting            triclinic 
loop_ 
_symmetry_equiv_pos_as_xyz 
  x,y,z 
_cell_length_a                    31.07885671 
_cell_length_b                    31.104872458154283 
_cell_length_c                    30.137788287077548 
_cell_angle_alpha                 89.66995165136578 
_cell_angle_beta                  90.43108287523599 
_cell_angle_gamma                 89.86536286279139 
loop_ 
_atom_site_label 
_atom_site_type_symbol 
_atom_site_fract_x 
_atom_site_fract_y 
_atom_site_fract_z 
_atom_site_charge 
O1          O  0.31587123  0.65941390  0.77040051    -0.77100
O2          O  0.32293644  0.82449016  0.73877273    -0.77200
O3          O  0.26640175  0.70349566  0.67582693    -0.77200
O4          O  0.27638097  0.78684689  0.84561048    -0.77100
O5          O  0.31569779  0.75610763  0.67551700    -0.77200
O6          O  0.31778615  0.73180628  0.82572583    -0.77100
O7          O  0.27472775  0.85133562  0.78542384    -0.77100
O8          O  0.27416203  0.66937920  0.71023135    -0.77200
C9          C  0.30278314  0.64689408  0.73235960     1.12600
C10         C  0.31113057  0.85275099  0.76645286     1.12400
C11         C  0.29849241  0.72349531  0.65743898     1.12600
C12         C  0.30699903  0.76104885  0.85313395     1.12500
O13         O  0.24320537  0.70243071  0.81944243    -0.77100
O14         O  0.23464643  0.78722083  0.65267008    -0.77200
O15         O  0.19645068  0.66074125  0.72739733    -0.77100
O16         O  0.19114413  0.82478493  0.75605507    -0.77100
O17         O  0.23982470  0.85207591  0.71046682    -0.77200
O18         O  0.23878870  0.66830697  0.78737385    -0.77100
O19         O  0.19594443  0.75742046  0.81997375    -0.77100
O20         O  0.19033671  0.73696960  0.67861199    -0.77200
Co21       Co  0.28716733  0.71388022  0.76924767     1.51500
Co22       Co  0.27829935  0.80227206  0.69785541     1.51700
Co23       Co  0.22618519  0.71437716  0.72958588     1.51600
Co24       Co  0.23481312  0.80264208  0.79839794     1.51500
O25         O  0.25698896  0.76558810  0.74890435    -1.39100
C26         C  0.21096924  0.72298882  0.83688862     1.12500
C27         C  0.20068881  0.76520634  0.64981358     1.12600
C28         C  0.20974156  0.64682922  0.76493645     1.12500
C29         C  0.20287184  0.85288113  0.72808383     1.12500
O30         O  0.74786614  0.21144580  0.65505655    -0.77100
O31         O  0.75268167  0.18291941  0.82930637    -0.77200
O32         O  0.83287441  0.22811875  0.71459364    -0.77200
O33         O  0.65060794  0.22857060  0.78560278    -0.77100
O34         O  0.82084671  0.17863052  0.76573800    -0.77200
O35         O  0.68391839  0.17122224  0.76123791    -0.77100
O36         O  0.70952857  0.23610279  0.84991104    -0.77100
O37         O  0.80947350  0.24125794  0.67785147    -0.77200
C38         C  0.78750297  0.22059877  0.64839943     1.12600
C39         C  0.72500654  0.19853227  0.85558021     1.12400
C40         C  0.84358306  0.19278994  0.73417315     1.12600
C41         C  0.65122128  0.18880030  0.77864124     1.12500
O42         O  0.66182154  0.24099470  0.70207340    -0.77100
O43         O  0.84372232  0.26641382  0.78630973    -0.77200
O44         O  0.75645096  0.30684752  0.68523960    -0.77100
O45         O  0.74083433  0.31490466  0.80990060    -0.77100
O46         O  0.78042298  0.26811598  0.84747892    -0.77200
O47         O  0.71641765  0.25024753  0.66368087    -0.77100
O48         O  0.67697126  0.30076060  0.74033025    -0.77100
O49         O  0.83993568  0.31198690  0.72831552    -0.77200
Co50       Co  0.71420232  0.20277749  0.71224035     1.51500
Co51       Co  0.79455306  0.22354974  0.80323459     1.51700
Co52       Co  0.79044011  0.27633163  0.73280460     1.51600
Co53       Co  0.69871069  0.26946064  0.79355624     1.51500
O54         O  0.74623293  0.24000734  0.75681562    -1.39100
C55         C  0.65295339  0.27976170  0.71339258     1.12500
C56         C  0.86021127  0.29653569  0.76186808     1.12600
C57         C  0.72915329  0.28968647  0.65901160     1.12500
C58         C  0.76571982  0.30567821  0.84216109     1.12500
O59         O  0.66348138  0.72976333  0.18787710    -0.77100
O60         O  0.82809796  0.75697661  0.18412638    -0.77200
O61         O  0.70574046  0.82044128  0.23591388    -0.77200
O62         O  0.78847035  0.65672163  0.22990721    -0.77100
O63         O  0.76086757  0.82013562  0.18799925    -0.77200
O64         O  0.73804812  0.68196035  0.18375199    -0.77100
O65         O  0.85396779  0.71231594  0.23561673    -0.77100
O66         O  0.67165471  0.78857669  0.22971957    -0.77200
C67         C  0.64962599  0.76603386  0.20088910     1.12600
C68         C  0.85526498  0.72896823  0.19713798     1.12400
C69         C  0.72747676  0.83794626  0.20380588     1.12600
C70         C  0.76573568  0.65365532  0.19517733     1.12500
O71         O  0.70464462  0.68069267  0.26109511    -0.77100
O72         O  0.79080433  0.84383102  0.27105948    -0.77200
O73         O  0.66194785  0.77324555  0.30996169    -0.77100
O74         O  0.82637294  0.74017889  0.32032857    -0.77100
O75         O  0.85433527  0.78483157  0.27025405    -0.77200
O76         O  0.67096561  0.71437350  0.26862028    -0.77100
O77         O  0.75711235  0.67930152  0.31259074    -0.77100
O78         O  0.73503985  0.82477450  0.31267886    -0.77200
Co79       Co  0.71666647  0.73223026  0.21908538     1.51500
Co80       Co  0.80599781  0.79818457  0.22850365     1.51700
Co81       Co  0.71626313  0.77077462  0.28100675     1.51600
Co82       Co  0.80385349  0.70059683  0.27453368     1.51500
O83         O  0.76804853  0.75049282  0.25119849    -1.39100
C84         C  0.72436779  0.66226072  0.29431446     1.12500
C85         C  0.76474111  0.85110722  0.30206642     1.12600
C86         C  0.64880938  0.73645128  0.29740402     1.12500
C87         C  0.85487562  0.76700147  0.30831850     1.12500
C88         C  0.52606097  0.99677432  0.04489396     0.05300
C89         C  0.49397676  0.96513327  0.04553931     0.05300
C90         C  0.46322757  0.96308839  0.01135541     0.05300
C91         C  0.46304875  0.99475765  0.97816675     0.05300
C92         C  0.49423746  0.02722782  0.97788399     0.05300
C93         C  0.52652201  0.02730215  0.01050321     0.05300
C94         C  0.67009316  0.03147713  0.18436062     0.83200
N95         N  0.63620715  0.03171358  0.15588263    -0.75100
C96         C  0.62360361  0.99510116  0.13569207     0.85700
N97         N  0.64490211  0.95781640  0.14359966    -0.75000
C98         C  0.67898747  0.95678253  0.17186649     0.85800
N99         N  0.69183481  0.99381379  0.19250778    -0.76700
C100        C  0.65637762  0.17106598  0.04343804     0.83200
N101        N  0.62697505  0.13929127  0.04276455    -0.75100
C102        C  0.62171414  0.11532764  0.00598112     0.85700
N103        N  0.64579964  0.12285408  0.96954477    -0.75000
C104        C  0.67577813  0.15436044  0.97015991     0.85800
N105        N  0.68109247  0.17877583  0.00715643    -0.76700
C106        C  0.33528319  0.03598033  0.82793271     0.83200
N107        N  0.33127348  0.00142182  0.80056818    -0.75100
C108        C  0.35340490  0.96457234  0.81014627     0.85700
N109        N  0.37831068  0.96220677  0.84696822    -0.75000
C110        C  0.38175509  0.99649572  0.87391283     0.85800
N111        N  0.36052289  0.03332514  0.86448970    -0.76700
C112        C  0.53463005  0.14982307  0.82143733     0.83200
N113        N  0.49859610  0.17233385  0.80896156    -0.75100
C114        C  0.46076990  0.16599239  0.83098647     0.85700
N115        N  0.45937706  0.13754737  0.86520496    -0.75000
C116        C  0.49523557  0.11557894  0.87759196     0.85800
N117        N  0.53264629  0.12176466  0.85583156    -0.76700
C118        C  0.45878280  0.82767593  0.19010509     0.83200
N119        N  0.49587515  0.80503394  0.19686833    -0.75100
C120        C  0.53205871  0.81653044  0.17452447     0.85700
N121        N  0.53103899  0.85016168  0.14602170    -0.75000
C122        C  0.49417281  0.87237078  0.13955794     0.85800
N123        N  0.45803410  0.86117850  0.16132174    -0.76700
C124        C  0.32674980  0.82242451  0.04690942     0.83200
N125        N  0.35556038  0.85499498  0.04572575    -0.75100
C126        C  0.37871233  0.86265884  0.00865324     0.85700
N127        N  0.37325567  0.83759961  0.97230813    -0.75000
C128        C  0.34475405  0.80452949  0.97296117     0.85800
N129        N  0.32117887  0.79706787  0.01037755    -0.76700
C130        C  0.03462265  0.49362890  0.95905687     0.05300
C131        C  0.00231734  0.46218165  0.96057246     0.05300
C132        C  0.96795029  0.46647730  0.99018456     0.05300
C133        C  0.96537457  0.50252440  0.01766583     0.05300
C134        C  0.99861261  0.53293019  0.01704279     0.05300
C135        C  0.03368261  0.52832400  0.98848046     0.05300
C136        C  0.17371575  0.66602631  0.95261990     0.83200
N137        N  0.14191730  0.63631822  0.95322441    -0.75100
C138        C  0.13297307  0.61450787  0.99107701     0.85700
N139        N  0.15595525  0.62232215  0.02869576    -0.75000
C140        C  0.18819717  0.65178298  0.02849494     0.85800
N141        N  0.19691476  0.67389268  0.99034872    -0.76700
C142        C  0.17858395  0.53385698  0.82513557     0.83200
N143        N  0.14309341  0.53159895  0.85089307    -0.75100
C144        C  0.13499727  0.49539181  0.87453018     0.85700
N145        N  0.16223253  0.46160743  0.87285948    -0.75000
C146        C  0.19790803  0.46366237  0.84764174     0.85800
N147        N  0.20606111  0.49969946  0.82320881    -0.76700
C148        C  0.96287780  0.67783451  0.15094391     0.83200
N149        N  0.96313067  0.65049360  0.11633186    -0.75100
C150        C  0.99742775  0.62461152  0.11004449     0.85700
N151        N  0.03126462  0.62526448  0.13837378    -0.75000
C152        C  0.03093168  0.65204337  0.17343433     0.85800
N153        N  0.99677012  0.67869803  0.17980177    -0.76700
C154        C  0.81175184  0.54307946  0.14598006     0.83200
N155        N  0.84238973  0.54441817  0.11404560    -0.75100
C156        C  0.86729307  0.50933284  0.10639885     0.85700
N157        N  0.86198644  0.47309356  0.13080749    -0.75000
C158        C  0.83194582  0.47148247  0.16302592     0.85800
N159        N  0.80665776  0.50654127  0.17067788    -0.76700
C160        C  0.04189257  0.30055158  0.84873667     0.83200
N161        N  0.03986813  0.33319229  0.87804090    -0.75100
C162        C  0.00522370  0.35942737  0.87848200     0.85700
N163        N  0.97250571  0.35355284  0.84934944    -0.75000
C164        C  0.97428354  0.32126212  0.81950868     0.85800
N165        N  0.00919849  0.29459670  0.81890457    -0.76700
C166        C  0.83370274  0.32200082  0.02410489     0.83200
N167        N  0.86642372  0.35056432  0.02553561    -0.75100
C168        C  0.87281114  0.37773851  0.99104692     0.85700
N169        N  0.84651987  0.37676775  0.95513329    -0.75000
C170        C  0.81339581  0.34873774  0.95359968     0.85800
N171        N  0.80694248  0.32097993  0.98808717    -0.76700
C172        C  0.49732264  0.46234048  0.52742858     0.05300
C173        C  0.53194115  0.46516382  0.49787777     0.05300
C174        C  0.53426473  0.49980542  0.46789187     0.05300
C175        C  0.50233397  0.53185732  0.46789701     0.05300
C176        C  0.46841860  0.52965714  0.49825631     0.05300
C177        C  0.46603429  0.49495460  0.52810358     0.05300
C178        C  0.53842900  0.31523605  0.65810256     0.83200
N179        N  0.53549966  0.34891495  0.62959647    -0.75100
C180        C  0.49775911  0.35786672  0.60882094     0.85700
N181        N  0.46273388  0.33322520  0.61635437    -0.75000
C182        C  0.46528192  0.29923557  0.64453820     0.85800
N183        N  0.50315174  0.29033436  0.66593577    -0.76700
C184        C  0.33300256  0.67182548  0.53775303     0.83200
N185        N  0.36467036  0.64180181  0.53714783    -0.75100
C186        C  0.37442655  0.62131130  0.49896008     0.85700
N187        N  0.35249641  0.63058288  0.46107522    -0.75000
C188        C  0.32060587  0.66036846  0.46104077     0.85800
N189        N  0.31077383  0.68122640  0.49952834    -0.76700
C190        C  0.67046107  0.54580934  0.32530761     0.83200
N191        N  0.64357312  0.54368971  0.36043232    -0.75100
C192        C  0.62240708  0.50677517  0.36969060     0.85700
N193        N  0.62767015  0.47182189  0.34387034    -0.75000
C194        C  0.65415674  0.47323350  0.30851600     0.85800
N195        N  0.67606820  0.51033668  0.29917509    -0.76700
C196        C  0.46164575  0.66607972  0.32195174     0.83200
N197        N  0.49752998  0.68897895  0.31135651    -0.75100
C198        C  0.53537162  0.68083511  0.33304797     0.85700
N199        N  0.53714522  0.64996599  0.36490773    -0.75000
C200        C  0.50140037  0.62741386  0.37536242     0.85800
N201        N  0.46375844  0.63543317  0.35398082    -0.76700
C202        C  0.32900043  0.53426510  0.66998500     0.83200
N203        N  0.36138951  0.53290117  0.64017743    -0.75100
C204        C  0.36762993  0.49713540  0.61562148     0.85700
N205        N  0.34171262  0.46268929  0.62063693    -0.75000
C206        C  0.30909560  0.46375828  0.65001747     0.85800
N207        N  0.30283201  0.49948387  0.67522557    -0.76700
C208        C  0.67484963  0.33127684  0.54415437     0.83200
N209        N  0.64483920  0.36301904  0.54250264    -0.75100
C210        C  0.62239453  0.37046309  0.50444298     0.85700
N211        N  0.62970196  0.34626074  0.46818031    -0.75000
C212        C  0.65928679  0.31436758  0.46962717     0.85800
N213        N  0.68223348  0.30689149  0.50756311    -0.76700
C214        C  0.03049422  0.00669240  0.53370882     0.05300
C215        C  0.02915210  0.97279564  0.50332045     0.05300
C216        C  0.99525083  0.97128750  0.47232577     0.05300
C217        C  0.96341463  0.00340339  0.47101819     0.05300
C218        C  0.96627443  0.03812813  0.50029598     0.05300
C219        C  0.99943893  0.03949945  0.53205208     0.05300
C220        C  0.96248939  0.16185492  0.68750836     0.83200
N221        N  0.96363380  0.13441948  0.65286949    -0.75100
C222        C  0.00019432  0.12902462  0.62951483     0.85700
N223        N  0.03616531  0.15100186  0.64050587    -0.75000
C224        C  0.03592819  0.17888586  0.67481745     0.85800
N225        N  0.99885858  0.18451922  0.69869507    -0.76700
C226        C  0.17829674  0.03507505  0.66913975     0.83200
N227        N  0.14666102  0.03815827  0.63826073    -0.75100
C228        C  0.12008279  0.00452811  0.63131537     0.85700
N229        N  0.12489902  0.96776827  0.65493777    -0.75000
C230        C  0.15612058  0.96479312  0.68623713     0.85800
N231        N  0.18324489  0.99832802  0.69322393    -0.76700
C232        C  0.15457845  0.81793380  0.53818237     0.83200
N233        N  0.12532756  0.85046898  0.53897830    -0.75100
C234        C  0.12048423  0.87700072  0.50325917     0.85700
N235        N  0.14519119  0.87113844  0.46671037    -0.75000
C236        C  0.17495271  0.83905277  0.46591428     0.85800
N237        N  0.17947141  0.81243812  0.50167035    -0.76700
C238        C  0.84016098  0.18915681  0.52995757     0.83200
N239        N  0.83274359  0.20972977  0.49066072    -0.75100
C240        C  0.85186841  0.19509138  0.45314486     0.85700
N241        N  0.87738075  0.15985001  0.45484725    -0.75000
C242        C  0.88439254  0.13948074  0.49397124     0.85800
N243        N  0.86591122  0.15406098  0.53145662    -0.76700
C244        C  0.82651669  0.03873222  0.32622476     0.83200
N245        N  0.85769945  0.03683857  0.35774387    -0.75100
C246        C  0.86407502  0.00046929  0.38172014     0.85700
N247        N  0.83908972  0.96546447  0.37438333    -0.75000
C248        C  0.80737164  0.96679462  0.34311646     0.85800
N249        N  0.80113905  0.00357526  0.31871582    -0.76700
C250        C  0.03220021  0.83785718  0.32886054     0.83200
N251        N  0.99889569  0.80964695  0.32552532    -0.75100
C252        C  0.96437756  0.81377529  0.35274292     0.85700
N253        N  0.96298468  0.84610817  0.38233125    -0.75000
C254        C  0.99620592  0.87376665  0.38548264     0.85800
N255        N  0.03083871  0.86975361  0.35901394    -0.76700
O256        O  0.27262138  0.16210896  0.68497792    -0.77100
O257        O  0.24224112  0.32210295  0.68483311    -0.77200
O258        O  0.16460552  0.20677146  0.74713480    -0.77200
O259        O  0.34829833  0.28474391  0.72624510    -0.77100
O260        O  0.17840234  0.25392360  0.69387108    -0.77200
O261        O  0.32244037  0.23546040  0.68013445    -0.77100
O262        O  0.29028802  0.34887113  0.73216343    -0.77100
O263        O  0.21742703  0.16140683  0.73276717    -0.77200
C264        C  0.23874573  0.14455421  0.70040850     1.12600
C265        C  0.26959778  0.35064002  0.69564783     1.12400
C266        C  0.15402357  0.22517821  0.71108154     1.12600
C267        C  0.35132347  0.26201450  0.69174805     1.12500
O268        O  0.32952866  0.20416185  0.75661659    -0.77100
O269        O  0.16241029  0.28552795  0.78057108    -0.77200
O270        O  0.25016385  0.16862926  0.81400737    -0.77100
O271        O  0.26810308  0.32259945  0.81989360    -0.77100
O272        O  0.22035898  0.34902008  0.77178064    -0.77200
O273        O  0.29858445  0.16840415  0.76076409    -0.77100
O274        O  0.32946876  0.25397130  0.81047315    -0.77100
O275        O  0.18504082  0.23337135  0.82557865    -0.77200
Co276      Co  0.27398635  0.21434199  0.71747721     1.51500
Co277      Co  0.20493628  0.29966547  0.73286423     1.51700
Co278      Co  0.22119160  0.21213936  0.77730069     1.51600
Co279      Co  0.30547475  0.29970206  0.77246918     1.51500
O280        O  0.25550677  0.26166832  0.75336521    -1.39100
C281        C  0.34718129  0.22229242  0.79129436     1.12500
C282        C  0.15818394  0.26246177  0.81520132     1.12600
C283        C  0.28200181  0.15114489  0.79569087     1.12500
C284        C  0.24077884  0.35104654  0.80832479     1.12500
O285        O  0.76017419  0.16708715  0.29389642    -0.77100
O286        O  0.75698054  0.35426311  0.20204458    -0.77200
O287        O  0.81383966  0.24579023  0.16760388    -0.77200
O288        O  0.81529376  0.26405056  0.30927099    -0.77100
O289        O  0.75926248  0.28799699  0.14605324    -0.77200
O290        O  0.76634311  0.21877357  0.33520924    -0.77100
O291        O  0.81160829  0.33135919  0.24357430    -0.77100
O292        O  0.81222172  0.17970324  0.24546866    -0.77200
C293        C  0.79563824  0.15639822  0.27600788     1.12600
C294        C  0.79534175  0.35811334  0.21595790     1.12400
C295        C  0.79635065  0.27137527  0.13981455     1.12600
C296        C  0.80335088  0.23605324  0.33740106     1.12500
O297        O  0.68308845  0.24527545  0.32462581    -0.77100
O298        O  0.68038421  0.25451370  0.18119002    -0.77200
O299        O  0.74277875  0.16321628  0.20486126    -0.77100
O300        O  0.73144321  0.35631026  0.28008723    -0.77100
O301        O  0.67845231  0.32758373  0.24075961    -0.77200
O302        O  0.69003665  0.17565641  0.25243464    -0.77100
O303        O  0.73344671  0.29350545  0.34209603    -0.77100
O304        O  0.73354510  0.21164244  0.15957912    -0.77200
Co305      Co  0.72473640  0.22052907  0.28424439     1.51500
Co306      Co  0.71911636  0.30283491  0.19645994     1.51700
Co307      Co  0.77430520  0.21981714  0.21008572     1.51600
Co308      Co  0.77269191  0.30792412  0.29027025     1.51500
O309        O  0.74745684  0.26611623  0.24511208    -1.39100
C310        C  0.69848603  0.27342759  0.35048214     1.12500
C311        C  0.69524581  0.22569537  0.15566044     1.12600
C312        C  0.70804031  0.15147186  0.22375815     1.12500
C313        C  0.69329673  0.35769230  0.26502032     1.12500
O314        O  0.33168911  0.68482629  0.22978457    -0.77100
O315        O  0.16696215  0.67663427  0.25684848    -0.77200
O316        O  0.28719586  0.72984115  0.32535417    -0.77200
O317        O  0.20499326  0.72664343  0.15390241    -0.77100
O318        O  0.23470888  0.68048819  0.32251008    -0.77200
O319        O  0.25853635  0.68357970  0.17587977    -0.77100
O320        O  0.14021993  0.72761435  0.21229274    -0.77100
O321        O  0.32212540  0.72360863  0.29134216    -0.77200
C322        C  0.34462461  0.69625012  0.26816219     1.12600
C323        C  0.13938830  0.68980908  0.22845185     1.12400
C324        C  0.26720451  0.69684728  0.34192264     1.12600
C325        C  0.22979684  0.69504586  0.14769883     1.12500
O326        O  0.28956625  0.75793968  0.18185861    -0.77100
O327        O  0.20313486  0.76017860  0.34811997    -0.77200
O328        O  0.32963629  0.80232416  0.27861882    -0.77100
O329        O  0.16656447  0.80938603  0.24486920    -0.77100
O330        O  0.13936203  0.75814042  0.28807527    -0.77200
O331        O  0.32285073  0.76342253  0.21654703    -0.77100
O332        O  0.23540621  0.80601806  0.18113915    -0.77100
O333        O  0.25317264  0.80595234  0.32473771    -0.77200
Co334      Co  0.27764680  0.71370375  0.23183117     1.51500
Co335      Co  0.18868518  0.71896709  0.30048704     1.51700
Co336      Co  0.27660753  0.77256692  0.27328959     1.51600
Co337      Co  0.18928872  0.76723366  0.20150801     1.51500
O338        O  0.22574153  0.74290134  0.25141962    -1.39100
C339        C  0.26918439  0.79027006  0.16389524     1.12500
C340        C  0.22489131  0.79414391  0.35262320     1.12600
C341        C  0.34394787  0.79112988  0.24094063     1.12500
C342        C  0.13903799  0.79626724  0.27288794     1.12500
C343        C  0.07021206  0.83254585  0.30294895    -0.10300
C344        C  0.10350920  0.82225041  0.28590827    -0.11800
C345        C  0.81343167  0.11512457  0.28869606    -0.10300
C346        C  0.81992634  0.07911782  0.30298830    -0.11800
C347        C  0.82947239  0.22559956  0.37504335    -0.10300
C348        C  0.84235724  0.21403724  0.41086355    -0.11800
C349        C  0.19937964  0.83109309  0.42603853    -0.10300
C350        C  0.21555578  0.81880202  0.39186152    -0.11800
C351        C  0.20566110  0.07116695  0.67639895    -0.10300
C352        C  0.22401695  0.10423298  0.68414435    -0.11800
C353        C  0.11211035  0.21423105  0.69283565    -0.10300
C354        C  0.07599185  0.20086933  0.68530102    -0.11800
C355        C  0.99420372  0.90781899  0.41594148    -0.10300
C356        C  0.99355566  0.93677508  0.44152815    -0.11800
C357        C  0.92770427  0.00056871  0.43995734    -0.14500
C358        C  0.89813126  0.99916961  0.41397118    -0.11800
C359        C  0.91153788  0.10275798  0.49575059    -0.10300
C360        C  0.93556437  0.07267088  0.49762103    -0.11800
C361        C  0.00048448  0.07340189  0.56449590    -0.10300
C362        C  0.00080373  0.09966709  0.59346599    -0.11800
C363        C  0.08882699  0.00668480  0.59706661    -0.10300
C364        C  0.06279531  0.00706886  0.56777681    -0.11800
C365        C  0.06208445  0.93927930  0.50418462    -0.10300
C366        C  0.08894192  0.91106261  0.50400919    -0.11800
C367        C  0.66908496  0.29245686  0.42925711    -0.10300
C368        C  0.67923271  0.28094127  0.39272091    -0.11800
C369        C  0.28611055  0.42458858  0.65845298    -0.10300
C370        C  0.27475852  0.38922228  0.67001157    -0.11800
C371        C  0.42091306  0.67449322  0.30049589    -0.10300
C372        C  0.38562354  0.68194289  0.28516066    -0.11800
C373        C  0.66149718  0.43350916  0.28480696    -0.10300
C374        C  0.67033594  0.39742695  0.27260182    -0.11800
C375        C  0.29871119  0.67016334  0.41948934    -0.10300
C376        C  0.28352547  0.67901143  0.38329665    -0.11800
C377        C  0.42617844  0.27685758  0.65536395    -0.10300
C378        C  0.39088963  0.26595831  0.66764623    -0.11800
C379        C  0.43558843  0.56269987  0.49837892    -0.10300
C380        C  0.40782247  0.58966683  0.49865252    -0.11800
C381        C  0.43165570  0.49353012  0.55974954    -0.10300
C382        C  0.40250018  0.49497235  0.58546236    -0.11800
C383        C  0.50338106  0.59471752  0.40862379    -0.10300
C384        C  0.50367823  0.56652434  0.43595450    -0.11800
C385        C  0.56826482  0.50188196  0.43575770    -0.10300
C386        C  0.59411090  0.50450173  0.40654168    -0.11800
C387        C  0.56508039  0.43252940  0.49894082    -0.10300
C388        C  0.59159221  0.40447326  0.50183767    -0.11800
C389        C  0.49420716  0.42574071  0.55683788    -0.10300
C390        C  0.49457580  0.39452185  0.58041056    -0.11800
C391        C  0.82555588  0.29617381  0.06272436    -0.10300
C392        C  0.81625734  0.28104001  0.09826385    -0.11800
C393        C  0.08175852  0.27755030  0.84543110    -0.10300
C394        C  0.11824476  0.26680445  0.83797710    -0.11800
C395        C  0.82585132  0.43159972  0.18692272    -0.10300
C396        C  0.81734017  0.39672423  0.20257558    -0.11800
C397        C  0.10289929  0.66458205  0.21669601    -0.10300
C398        C  0.06885807  0.65524637  0.20029602    -0.11800
C399        C  0.22282847  0.42520887  0.84257826    -0.10300
C400        C  0.23527840  0.38979500  0.83295921    -0.11800
C401        C  0.21052977  0.66166969  0.06972198    -0.10300
C402        C  0.22383634  0.67304759  0.10583406    -0.11800
C403        C  0.06852011  0.49120892  0.92703251    -0.10300
C404        C  0.09809737  0.49273799  0.90188440    -0.11800
C405        C  0.06903765  0.55877587  0.98995914    -0.10300
C406        C  0.09849380  0.58390864  0.99122157    -0.11800
C407        C  0.99754613  0.56802400  0.04716767    -0.10300
C408        C  0.99722533  0.59524032  0.07470974    -0.11800
C409        C  0.92932338  0.50766387  0.04745579    -0.10300
C410        C  0.90019808  0.51029212  0.07341787    -0.11800
C411        C  0.93505635  0.43411825  0.99201505    -0.10300
C412        C  0.90706150  0.40777948  0.99247843    -0.11800
C413        C  0.00414105  0.42553155  0.93178059    -0.10300
C414        C  0.00448714  0.39493165  0.90787063    -0.11800
C415        C  0.30329287  0.81490118  0.08761956    -0.10300
C416        C  0.28662612  0.80771579  0.12320869    -0.11800
C417        C  0.41953057  0.81579322  0.21148527    -0.10300
C418        C  0.38469400  0.80653694  0.22585601    -0.11800
C419        C  0.42156530  0.18837215  0.81828126    -0.10300
C420        C  0.38719660  0.20446872  0.80823446    -0.11800
C421        C  0.31406452  0.07597783  0.81864864    -0.10300
C422        C  0.29918079  0.11114605  0.81151534    -0.11800
C423        C  0.66218354  0.19467976  0.08350237    -0.10300
C424        C  0.67131287  0.21055946  0.11852798    -0.11800
C425        C  0.68305551  0.07219876  0.20345530    -0.10300
C426        C  0.69190956  0.10876457  0.21419500    -0.11800
C427        C  0.40805498  0.99393992  0.91211767    -0.10300
C428        C  0.43192092  0.99326619  0.94318423    -0.11800
C429        C  0.43298937  0.92768921  0.00941271    -0.10300
C430        C  0.40842216  0.89782384  0.00805425    -0.11800
C431        C  0.58943006  0.08335698  0.00554628    -0.10300
C432        C  0.56093466  0.05776060  0.00769411    -0.11800
C433        C  0.49383100  0.08561337  0.91359360    -0.10300
C434        C  0.49390764  0.05954986  0.94317178    -0.11800
C435        C  0.49341382  0.93381564  0.08047388    -0.10300
C436        C  0.49321174  0.90652354  0.10843809    -0.11800
C437        C  0.55958268  0.99672847  0.07833697    -0.10300
C438        C  0.58839643  0.99605851  0.10508578    -0.11800
C439        C  0.77000954  0.89235031  0.32361902    -0.10300
C440        C  0.78342684  0.92769322  0.33382216    -0.11800
C441        C  0.69982739  0.91565001  0.18009318    -0.10300
C442        C  0.71306469  0.87943785  0.18722864    -0.11800
C443        C  0.92490761  0.70243246  0.15901158    -0.10300
C444        C  0.89142212  0.71776843  0.17081097    -0.11800
C445        C  0.89202351  0.77494375  0.33499423    -0.10300
C446        C  0.92650288  0.78858744  0.34629893    -0.11800
C447        C  0.70759156  0.62148014  0.30984249    -0.10300
C448        C  0.69220484  0.58617144  0.31652325    -0.11800
C449        C  0.77296803  0.61537847  0.16937304    -0.10300
C450        C  0.78767515  0.58167819  0.15616183    -0.11800
C451        C  0.60796435  0.78094079  0.18740136    -0.10300
C452        C  0.57219601  0.79481656  0.18147365    -0.11800
C453        C  0.60842297  0.71956177  0.31271116    -0.10300
C454        C  0.57420188  0.70353741  0.32189651    -0.11800
C455        C  0.90323142  0.30972663  0.77293627    -0.10300
C456        C  0.93788625  0.31499518  0.79047004    -0.11800
C457        C  0.92132270  0.16786431  0.70946394    -0.10300
C458        C  0.88458955  0.17382821  0.72199682    -0.11800
C459        C  0.71293204  0.17599465  0.89512538    -0.10300
C460        C  0.69851453  0.16424488  0.93014556    -0.11800
C461        C  0.77453599  0.33473998  0.87762202    -0.10300
C462        C  0.78894284  0.34527018  0.91316459    -0.11800
C463        C  0.61211936  0.16597253  0.78894973    -0.10300
C464        C  0.57600602  0.15712266  0.80095421    -0.11800
C465        C  0.61394377  0.29814103  0.69558503    -0.10300
C466        C  0.57910827  0.30657878  0.67964041    -0.11800
C467        C  0.71409609  0.31195903  0.61988930    -0.10300
C468        C  0.69766804  0.32278465  0.58509197    -0.11800
C469        C  0.82072381  0.20345729  0.57022256    -0.10300
C470        C  0.80593021  0.21184421  0.60596561    -0.11800
C471        C  0.32803365  0.76639994  0.89589972    -0.10300
C472        C  0.33732685  0.78028853  0.93243062    -0.11800
C473        C  0.19213784  0.70481339  0.87639076    -0.10300
C474        C  0.18288648  0.68828188  0.91153270    -0.11800
C475        C  0.17679155  0.88960488  0.71905240    -0.10300
C476        C  0.16408882  0.92422766  0.70700539    -0.11800
C477        C  0.34651642  0.92591363  0.78566265    -0.10300
C478        C  0.33582785  0.89077779  0.77339677    -0.11800
C479        C  0.32298415  0.69242489  0.57953491    -0.10300
C480        C  0.31462529  0.70702834  0.61579684    -0.11800
C481        C  0.16187576  0.79168151  0.57736095    -0.10300
C482        C  0.17438871  0.77445075  0.61127692    -0.11800
C483        C  0.31675882  0.60665982  0.71397484    -0.10300
C484        C  0.32282640  0.57280757  0.69550172    -0.11800
C485        C  0.19472382  0.60672998  0.78287430    -0.10300
C486        C  0.18696047  0.57280998  0.80074380    -0.11800
loop_ 
_geom_bond_atom_site_label_1 
_geom_bond_atom_site_label_2 
_geom_bond_distance 
_geom_bond_site_symmetry_2 
_ccdc_geom_bond_type 
O1            C9   1.277       .  A
O1          Co21   1.913       .  S
O2           C10   1.271       .  A
O2          Co22   1.978       .  S
O3           C11   1.302       .  A
O3          Co23   2.082       .  S
O4           C12   1.262       .  A
O4          Co24   1.974       .  S
O5           C11   1.271       .  A
O5          Co22   1.970       .  S
O6           C12   1.278       .  A
O6          Co21   2.026       .  S
O7           C10   1.272       .  A
O7          Co24   1.999       .  S
O8            C9   1.307       .  A
O8          Co23   2.130       .  S
C9          C483   1.439       .  S
C10         C478   1.427       .  S
C11         C480   1.451       .  S
C12         C471   1.451       .  S
O13          C26   1.303       .  A
O13         Co21   2.076       .  S
O14          C27   1.262       .  A
O14         Co22   1.974       .  S
O15          C28   1.274       .  A
O15         Co23   1.910       .  S
O16          C29   1.267       .  A
O16         Co24   1.976       .  S
O17          C29   1.269       .  A
O17         Co22   1.995       .  S
O18          C28   1.310       .  A
O18         Co21   2.141       .  S
O19          C26   1.270       .  A
O19         Co24   1.967       .  S
O20          C27   1.275       .  A
O20         Co23   2.013       .  S
Co21         O25   1.953       .  S
Co22         O25   2.026       .  S
Co23         O25   1.950       .  S
Co24         O25   2.015       .  S
C26         C473   1.444       .  S
C27         C482   1.442       .  S
C28         C485   1.437       .  S
C29         C475   1.423       .  S
O30          C38   1.282       .  A
O30         Co50   2.040       .  S
O31          C39   1.271       .  A
O31         Co51   1.980       .  S
O32          C40   1.286       .  A
O32         Co52   2.074       .  S
O33          C41   1.256       .  A
O33         Co53   1.979       .  S
O34          C40   1.267       .  A
O34         Co51   1.981       .  S
O35          C41   1.271       .  A
O35         Co50   2.010       .  S
O36          C39   1.273       .  A
O36         Co53   2.011       .  S
O37          C38   1.291       .  A
O37         Co52   2.077       .  S
C38         C470   1.432       .  S
C39         C459   1.432       .  S
C40         C458   1.454       .  S
C41         C463   1.444       .  S
O42          C55   1.285       .  A
O42         Co50   2.034       .  S
O43          C56   1.297       .  A
O43         Co51   2.094       .  S
O44          C57   1.275       .  A
O44         Co52   2.007       .  S
O45          C58   1.269       .  A
O45         Co53   1.990       .  S
O46          C58   1.262       .  A
O46         Co51   1.980       .  S
O47          C57   1.297       .  A
O47         Co50   2.075       .  S
O48          C55   1.281       .  A
O48         Co53   1.985       .  S
O49          C56   1.278       .  A
O49         Co52   1.904       .  S
Co50         O54   2.035       .  S
Co51         O54   2.105       .  S
Co52         O54   1.924       .  S
Co53         O54   2.068       .  S
C55         C465   1.438       .  S
C56         C455   1.437       .  S
C57         C467   1.439       .  S
C58         C461   1.429       .  S
O59          C67   1.272       .  A
O59         Co79   1.898       .  S
O60          C68   1.270       .  A
O60         Co80   1.983       .  S
O61          C69   1.302       .  A
O61         Co81   2.075       .  S
O62          C70   1.263       .  A
O62         Co82   1.979       .  S
O63          C69   1.272       .  A
O63         Co80   1.971       .  S
O64          C70   1.274       .  A
O64         Co79   2.011       .  S
O65          C68   1.268       .  A
O65         Co82   1.990       .  S
O66          C67   1.310       .  A
O66         Co81   2.138       .  S
C67         C451   1.430       .  S
C68         C444   1.424       .  S
C69         C442   1.450       .  S
C70         C449   1.444       .  S
O71          C84   1.300       .  A
O71         Co79   2.073       .  S
O72          C85   1.262       .  A
O72         Co80   1.978       .  S
O73          C86   1.275       .  A
O73         Co81   1.908       .  S
O74          C87   1.271       .  A
O74         Co82   1.980       .  S
O75          C87   1.271       .  A
O75         Co80   1.994       .  S
O76          C86   1.308       .  A
O76         Co79   2.140       .  S
O77          C84   1.272       .  A
O77         Co82   1.971       .  S
O78          C85   1.277       .  A
O78         Co81   2.022       .  S
Co79         O83   1.949       .  S
Co80         O83   2.017       .  S
Co81         O83   1.954       .  S
Co82         O83   2.027       .  S
C84         C447   1.449       .  S
C85         C439   1.450       .  S
C86         C453   1.440       .  S
C87         C445   1.425       .  S
C88         C437   1.444       .  S
C88          C89   1.403       .  A
C88          C93   1.402   1_565  A
C89         C435   1.430       .  S
C89          C90   1.402       .  A
C90         C429   1.450       .  S
C90          C91   1.400   1_554  A
C91         C428   1.427       .  S
C91          C92   1.402   1_565  A
C92         C434   1.447       .  S
C92          C93   1.399   1_556  A
C93         C432   1.433       .  S
C94         C425   1.451       .  S
C94          N95   1.354       .  A
C94          N99   1.371   1_545  A
N95          C96   1.352   1_545  A
C96         C438   1.426       .  S
C96          N97   1.353       .  A
N97          C98   1.355       .  A
C98         C441   1.452       .  S
C98          N99   1.371       .  A
C100        C423   1.427       .  S
C100        N101   1.348       .  A
C100        N105   1.361       .  A
N101        C102   1.349       .  A
C102        C431   1.414       .  S
C102        N103   1.353   1_554  A
N103        C104   1.354       .  A
C104        C460   1.434       .  S
C104        N105   1.362   1_556  A
C106        C421   1.432       .  S
C106        N107   1.364       .  A
C106        N111   1.350       .  A
N107        C108   1.364   1_545  A
C108        C477   1.430       .  S
C108        N109   1.350       .  A
N109        C110   1.348       .  A
C110        C427   1.409       .  S
C110        N111   1.348   1_565  A
C112        C464   1.448       .  S
C112        N113   1.368       .  A
C112        N117   1.353       .  A
N113        C114   1.369       .  A
C114        C419   1.450       .  S
C114        N115   1.356       .  A
N115        C116   1.355       .  A
C116        C433   1.427       .  S
C116        N117   1.353       .  A
C118        C417   1.432       .  S
C118        N119   1.363       .  A
C118        N123   1.352       .  A
N119        C120   1.363       .  A
C120        C452   1.431       .  S
C120        N121   1.350       .  A
N121        C122   1.349       .  A
C122        C436   1.413       .  S
C122        N123   1.350       .  A
C124        C415   1.450       .  S
C124        N125   1.354       .  A
C124        N129   1.368       .  A
N125        C126   1.354       .  A
C126        C430   1.433       .  S
C126        N127   1.358   1_554  A
N127        C128   1.359       .  A
C128        C472   1.456       .  S
C128        N129   1.368   1_556  A
C130        C403   1.436       .  S
C130        C131   1.404       .  A
C130        C135   1.401       .  A
C131        C413   1.438       .  S
C131        C132   1.404   1_455  A
C132        C411   1.437       .  S
C132        C133   1.400   1_556  A
C133        C409   1.450       .  S
C133        C134   1.402       .  A
C134        C407   1.424       .  S
C134        C135   1.402   1_654  A
C135        C405   1.453       .  S
C136        C474   1.446       .  S
C136        N137   1.355       .  A
C136        N141   1.365       .  A
N137        C138   1.355       .  A
C138        C406   1.435       .  S
C138        N139   1.359   1_556  A
N139        C140   1.359       .  A
C140        C401   1.453       .  S
C140        N141   1.365   1_554  A
C142        C486   1.439       .  S
C142        N143   1.355       .  A
C142        N147   1.363       .  A
N143        C144   1.354       .  A
C144        C404   1.420       .  S
C144        N145   1.349       .  A
N145        C146   1.350       .  A
C146        C399   1.433       .  S
C146        N147   1.363       .  A
C148        C443   1.428       .  S
C148        N149   1.350       .  A
C148        N153   1.361       .  A
N149        C150   1.349       .  A
C150        C408   1.407       .  S
C150        N151   1.350   1_655  A
N151        C152   1.349       .  A
C152        C398   1.429       .  S
C152        N153   1.361   1_455  A
C154        C450   1.449       .  S
C154        N155   1.359       .  A
C154        N159   1.365       .  A
N155        C156   1.358       .  A
C156        C410   1.432       .  S
C156        N157   1.354       .  A
N157        C158   1.353       .  A
C158        C395   1.444       .  S
C158        N159   1.364       .  A
C160        C393   1.434       .  S
C160        N161   1.351       .  A
C160        N165   1.365       .  A
N161        C162   1.350       .  A
C162        C414   1.420       .  S
C162        N163   1.352   1_455  A
N163        C164   1.353       .  A
C164        C456   1.439       .  S
C164        N165   1.365   1_655  A
C166        C391   1.435       .  S
C166        N167   1.353       .  A
C166        N171   1.363   1_554  A
N167        C168   1.352   1_554  A
C168        C412   1.419       .  S
C168        N169   1.352       .  A
N169        C170   1.351       .  A
C170        C462   1.436       .  S
C170        N171   1.364       .  A
C172        C389   1.443       .  S
C172        C173   1.404       .  A
C172        C177   1.404       .  A
C173        C387   1.444       .  S
C173        C174   1.405       .  A
C174        C385   1.440       .  S
C174        C175   1.405       .  A
C175        C384   1.442       .  S
C175        C176   1.402       .  A
C176        C379   1.447       .  S
C176        C177   1.404       .  A
C177        C381   1.438       .  S
C178        C466   1.441       .  S
C178        N179   1.353       .  A
C178        N183   1.365       .  A
N179        C180   1.353       .  A
C180        C390   1.425       .  S
C180        N181   1.353       .  A
N181        C182   1.354       .  A
C182        C377   1.441       .  S
C182        N183   1.365       .  A
C184        C479   1.452       .  S
C184        N185   1.355       .  A
C184        N189   1.369       .  A
N185        C186   1.355       .  A
C186        C380   1.429       .  S
C186        N187   1.355       .  A
N187        C188   1.355       .  A
C188        C375   1.451       .  S
C188        N189   1.369       .  A
C190        C448   1.451       .  S
C190        N191   1.355       .  A
C190        N195   1.371       .  A
N191        C192   1.353       .  A
C192        C386   1.423       .  S
C192        N193   1.351       .  A
N193        C194   1.352       .  A
C194        C373   1.449       .  S
C194        N195   1.370       .  A
C196        C371   1.440       .  S
C196        N197   1.364       .  A
C196        N201   1.354       .  A
N197        C198   1.364       .  A
C198        C454   1.441       .  S
C198        N199   1.355       .  A
N199        C200   1.353       .  A
C200        C383   1.425       .  S
C200        N201   1.353       .  A
C202        C484   1.441       .  S
C202        N203   1.355       .  A
C202        N207   1.364       .  A
N203        C204   1.354       .  A
C204        C382   1.421       .  S
C204        N205   1.350       .  A
N205        C206   1.351       .  A
C206        C369   1.436       .  S
C206        N207   1.364       .  A
C208        C468   1.441       .  S
C208        N209   1.357       .  A
C208        N213   1.363       .  A
N209        C210   1.356       .  A
C210        C388   1.426       .  S
C210        N211   1.351       .  A
N211        C212   1.351       .  A
C212        C367   1.432       .  S
C212        N213   1.362       .  A
C214        C364   1.431       .  S
C214        C215   1.401   1_545  A
C214        C219   1.403   1_455  A
C215        C365   1.459       .  S
C215        C216   1.404   1_455  A
C216        C356   1.424       .  S
C216        C217   1.405   1_565  A
C217        C357   1.450       .  S
C217        C218   1.401       .  A
C218        C360   1.437       .  S
C218        C219   1.402       .  A
C219        C361   1.442   1_655  S
C220        C457   1.457       .  S
C220        N221   1.353       .  A
C220        N225   1.374       .  A
N221        C222   1.352   1_655  A
C222        C362   1.423       .  S
C222        N223   1.352       .  A
N223        C224   1.354       .  A
C224        C354   1.455       .  S
C224        N225   1.374   1_455  A
C226        C351   1.427       .  S
C226        N227   1.352       .  A
C226        N231   1.358   1_545  A
N227        C228   1.351       .  A
C228        C363   1.413       .  S
C228        N229   1.351   1_545  A
N229        C230   1.351       .  A
C230        C476   1.426       .  S
C230        N231   1.359       .  A
C232        C481   1.448       .  S
C232        N233   1.359       .  A
C232        N237   1.361       .  A
N233        C234   1.360       .  A
C234        C366   1.442       .  S
C234        N235   1.360       .  A
N235        C236   1.360       .  A
C236        C349   1.448       .  S
C236        N237   1.361       .  A
C238        C469   1.432       .  S
C238        N239   1.361       .  A
C238        N243   1.352       .  A
N239        C240   1.362       .  A
C240        C348   1.429       .  S
C240        N241   1.352       .  A
N241        C242   1.351       .  A
C242        C359   1.419       .  S
C242        N243   1.351       .  A
C244        C346   1.448       .  S
C244        N245   1.353       .  A
C244        N249   1.369       .  A
N245        C246   1.352       .  A
C246        C358   1.432   1_545  S
C246        N247   1.357   1_545  A
N247        C248   1.359       .  A
C248        C440   1.455       .  S
C248        N249   1.369   1_565  A
C250        C343   1.431       .  S
C250        N251   1.362   1_455  A
C250        N255   1.350       .  A
N251        C252   1.362       .  A
C252        C446   1.428       .  S
C252        N253   1.349       .  A
N253        C254   1.349       .  A
C254        C355   1.407       .  S
C254        N255   1.351   1_655  A
O256        C264   1.277       .  A
O256       Co276   1.902       .  S
O257        C265   1.273       .  A
O257       Co277   1.986       .  S
O258        C266   1.266       .  A
O258       Co278   1.981       .  S
O259        C267   1.265       .  A
O259       Co279   1.990       .  S
O260        C266   1.283       .  A
O260       Co277   2.024       .  S
O261        C267   1.270       .  A
O261       Co276   1.997       .  S
O262        C265   1.271       .  A
O262       Co279   2.001       .  S
O263        C264   1.296       .  A
O263       Co278   2.080       .  S
C264        C352   1.424       .  S
C265        C370   1.434       .  S
C266        C353   1.452       .  S
C267        C378   1.438       .  S
O268        C281   1.308       .  A
O268       Co276   2.106       .  S
O269        C282   1.271       .  A
O269       Co277   2.008       .  S
O270        C283   1.260       .  A
O270       Co278   1.957       .  S
O271        C284   1.270       .  A
O271       Co279   1.983       .  S
O272        C284   1.269       .  A
O272       Co277   1.994       .  S
O273        C283   1.290       .  A
O273       Co276   2.070       .  S
O274        C281   1.272       .  A
O274       Co279   1.963       .  S
O275        C282   1.266       .  A
O275       Co278   1.962       .  S
Co276       O280   1.921       .  S
Co277       O280   2.054       .  S
Co278       O280   2.009       .  S
Co279       O280   2.036       .  S
C281        C420   1.449       .  S
C282        C394   1.429       .  S
C283        C422   1.431       .  S
C284        C400   1.430       .  S
O285        C293   1.275       .  A
O285       Co305   2.010       .  S
O286        C294   1.267       .  A
O286       Co306   1.995       .  S
O287        C295   1.270       .  A
O287       Co307   1.954       .  S
O288        C296   1.270       .  A
O288       Co308   1.978       .  S
O289        C295   1.278       .  A
O289       Co306   2.028       .  S
O290        C296   1.272       .  A
O290       Co305   2.001       .  S
O291        C294   1.275       .  A
O291       Co308   1.998       .  S
O292        C293   1.280       .  A
O292       Co307   2.010       .  S
C293        C345   1.445       .  S
C294        C396   1.440       .  S
C295        C392   1.432       .  S
C296        C347   1.426       .  S
O297        C310   1.268       .  A
O297       Co305   1.944       .  S
O298        C311   1.273       .  A
O298       Co306   1.982       .  S
O299        C312   1.278       .  A
O299       Co307   2.023       .  S
O300        C313   1.267       .  A
O300       Co308   1.996       .  S
O301        C313   1.276       .  A
O301       Co306   2.001       .  S
O302        C312   1.280       .  A
O302       Co305   2.009       .  S
O303        C310   1.281       .  A
O303       Co308   2.038       .  S
O304        C311   1.271       .  A
O304       Co307   1.991       .  S
Co305       O309   1.974       .  S
Co306       O309   2.046       .  S
Co307       O309   1.977       .  S
Co308       O309   2.041       .  S
C310        C368   1.431       .  S
C311        C424   1.422       .  S
C312        C426   1.451       .  S
C313        C374   1.446       .  S
O314        C322   1.274       .  A
O314       Co334   1.904       .  S
O315        C323   1.272       .  A
O315       Co335   1.982       .  S
O316        C324   1.300       .  A
O316       Co336   2.074       .  S
O317        C325   1.263       .  A
O317       Co337   1.980       .  S
O318        C324   1.272       .  A
O318       Co335   1.972       .  S
O319        C325   1.277       .  A
O319       Co334   2.020       .  S
O320        C323   1.271       .  A
O320       Co337   1.990       .  S
O321        C322   1.309       .  A
O321       Co336   2.141       .  S
C322        C372   1.438       .  S
C323        C397   1.424       .  S
C324        C376   1.450       .  S
C325        C402   1.450       .  S
O326        C339   1.300       .  A
O326       Co334   2.070       .  S
O327        C340   1.263       .  A
O327       Co335   1.980       .  S
O328        C341   1.273       .  A
O328       Co336   1.898       .  S
O329        C342   1.273       .  A
O329       Co337   1.989       .  S
O330        C342   1.269       .  A
O330       Co335   1.988       .  S
O331        C341   1.310       .  A
O331       Co334   2.142       .  S
O332        C339   1.273       .  A
O332       Co337   1.975       .  S
O333        C340   1.274       .  A
O333       Co336   2.011       .  S
Co334       O338   1.947       .  S
Co335       O338   2.021       .  S
Co336       O338   1.945       .  S
Co337       O338   2.019       .  S
C339        C416   1.448       .  S
C340        C350   1.444       .  S
C341        C418   1.431       .  S
C342        C344   1.426       .  S
C343        C344   1.202       .  T
C345        C346   1.214       .  T
C347        C348   1.201       .  T
C349        C350   1.213       .  T
C351        C352   1.201       .  T
C353        C354   1.218       .  T
C355        C356   1.189       .  T
C357        C358   1.204   1_545  T
C359        C360   1.197       .  T
C361        C362   1.199       .  T
C363        C364   1.193       .  T
C365        C366   1.210       .  T
C367        C368   1.204       .  T
C369        C370   1.206       .  T
C371        C372   1.208       .  T
C373        C374   1.215       .  T
C375        C376   1.215       .  T
C377        C378   1.209       .  T
C379        C380   1.202       .  T
C381        C382   1.198       .  T
C383        C384   1.200       .  T
C385        C386   1.199       .  T
C387        C388   1.201       .  T
C389        C390   1.200       .  T
C391        C392   1.205       .  T
C393        C394   1.205       .  T
C395        C396   1.211       .  T
C397        C398   1.201       .  T
C399        C400   1.204       .  T
C401        C402   1.216       .  T
C403        C404   1.197       .  T
C405        C406   1.206       .  T
C407        C408   1.189       .  T
C409        C410   1.204       .  T
C411        C412   1.197       .  T
C413        C414   1.197       .  T
C415        C416   1.214       .  T
C417        C418   1.204       .  T
C419        C420   1.214       .  T
C421        C422   1.204       .  T
C423        C424   1.200       .  T
C425        C426   1.216       .  T
C427        C428   1.190       .  T
C429        C430   1.205       .  T
C431        C432   1.194       .  T
C433        C434   1.201       .  T
C435        C436   1.193       .  T
C437        C438   1.200       .  T
C439        C440   1.217       .  T
C441        C442   1.216       .  T
C443        C444   1.201       .  T
C445        C446   1.201       .  T
C447        C448   1.215       .  T
C449        C450   1.213       .  T
C451        C452   1.203       .  T
C453        C454   1.209       .  T
C455        C456   1.208       .  T
C457        C458   1.219       .  T
C459        C460   1.205       .  T
C461        C462   1.205       .  T
C463        C464   1.214       .  T
C465        C466   1.209       .  T
C467        C468   1.209       .  T
C469        C470   1.204       .  T
C471        C472   1.218       .  T
C473        C474   1.212       .  T
C475        C476   1.200       .  T
C477        C478   1.202       .  T
C479        C480   1.216       .  T
C481        C482   1.212       .  T
C483        C484   1.209       .  T
C485        C486   1.207       .  T
