geometry optimzed in LAMMPS
_audit_creation_date              2020-11-30 
_audit_creation_method            'lammps2cif' 
_symmetry_space_group_name_H-M    'P1' 
_symmetry_Int_Tables_number       1 
_symmetry_cell_setting            triclinic 
loop_ 
_symmetry_equiv_pos_as_xyz 
  x,y,z 
_cell_length_a                    52.91207568 
_cell_length_b                    52.685231360136996 
_cell_length_c                    52.79796904870323 
_cell_angle_alpha                 89.91398228512507 
_cell_angle_beta                  90.02041760510231 
_cell_angle_gamma                 89.96711055990693 
loop_ 
_atom_site_label 
_atom_site_type_symbol 
_atom_site_fract_x 
_atom_site_fract_y 
_atom_site_fract_z 
_atom_site_charge 
N1          N  0.87553877  0.81125674  0.12433178    -0.25200
N2          N  0.85544110  0.81553383  0.11001920    -0.33000
C3          C  0.85582366  0.79954615  0.09016568     0.03200
C4          C  0.87711297  0.78455084  0.09220756     0.09200
C5          C  0.88923579  0.79241394  0.11396562    -0.03900
H6          H  0.84198730  0.79933849  0.07507271     0.09900
H7          H  0.90700860  0.78545786  0.12137389     0.11100
Cu8        Cu  0.82936613  0.84405967  0.11707579     0.44200
Cu9        Cu  0.88450466  0.83240557  0.15627780     0.42000
Cu10       Cu  0.84377895  0.88571908  0.16985336     0.43900
N11         N  0.80790389  0.87560930  0.12648939    -0.32500
N12         N  0.81319714  0.89084701  0.14567353    -0.26800
C13         C  0.79684868  0.91042369  0.14551021    -0.02900
C14         C  0.78058232  0.90724170  0.12532800     0.09300
C15         C  0.78806632  0.88508957  0.11361527     0.03100
H16         H  0.79744579  0.92628383  0.15849064     0.10800
H17         H  0.78038944  0.87700764  0.09642957     0.09800
N18         N  0.87624581  0.87747820  0.19045260    -0.34000
N19         N  0.89107223  0.85785418  0.18557835    -0.26200
C20         C  0.91088054  0.85826196  0.20158891    -0.01400
C21         C  0.90829425  0.87908659  0.21722184     0.07200
C22         C  0.88623999  0.89091175  0.20967904     0.05300
H23         H  0.92629680  0.84476270  0.20141647     0.10400
H24         H  0.87831965  0.90827508  0.21719353     0.09200
C25         C  0.16288660  0.45305980  0.93997276    -0.00400
C26         C  0.95522350  0.45609964  0.94520451    -0.00400
C27         C  0.95264541  0.66313115  0.94185255    -0.00400
C28         C  0.16056888  0.66060265  0.94132349    -0.00400
N29         N  0.22593832  0.85281798  0.18694305    -0.25200
N30         N  0.24031920  0.87288853  0.19130217    -0.33000
C31         C  0.23058129  0.88604154  0.21082573     0.03200
C32         C  0.20917873  0.87358986  0.21907820     0.09200
C33         C  0.20667350  0.85267808  0.20358131    -0.03900
H34         H  0.23802967  0.90381010  0.21785168     0.09900
H35         H  0.19150053  0.83891941  0.20372652     0.11100
Cu36       Cu  0.27130811  0.88280394  0.16930441     0.44200
Cu37       Cu  0.23162756  0.82785775  0.15712164     0.42000
Cu38       Cu  0.28395226  0.84224072  0.11553533     0.43900
N39         N  0.30014776  0.88939306  0.14346171    -0.32500
N40         N  0.30483736  0.87442526  0.12391843    -0.26800
C41         C  0.32384910  0.88438221  0.11022422    -0.02900
C42         C  0.33141852  0.90658501  0.12175823     0.09300
C43         C  0.31606079  0.90930703  0.14270923     0.03100
H44         H  0.33108832  0.87640863  0.09280125     0.10800
H45         H  0.31598296  0.92488719  0.15603671     0.09800
N46         N  0.25852707  0.81304769  0.10906318    -0.34000
N47         N  0.23933974  0.80778394  0.12424276    -0.26200
C48         C  0.22555508  0.78897275  0.11395710    -0.01400
C49         C  0.23670092  0.78216536  0.09133913     0.07200
C50         C  0.25748629  0.79773390  0.08872278     0.05300
H51         H  0.20832823  0.78138725  0.12198991     0.10400
H52         H  0.27044851  0.79844592  0.07289323     0.09200
N53         N  0.81325922  0.24075212  0.76229181    -0.25200
N54         N  0.81765869  0.22652615  0.74214078    -0.33000
C55         C  0.80107598  0.20717513  0.74184362     0.03200
C56         C  0.78559976  0.20951964  0.76273952     0.09200
C57         C  0.79377925  0.23088103  0.77534113    -0.03900
H58         H  0.80084482  0.19214622  0.72790227     0.09900
H59         H  0.78667860  0.23826710  0.79307781     0.11100
Cu60       Cu  0.84697136  0.23315972  0.71689685     0.44200
Cu61       Cu  0.83488070  0.27187528  0.77222447     0.42000
Cu62       Cu  0.88721538  0.28701080  0.73079870     0.43900
N63         N  0.87807790  0.24322525  0.69518627    -0.32500
N64         N  0.89274334  0.26291849  0.70022253    -0.26800
C65         C  0.91187223  0.26348181  0.68343853    -0.02900
C66         C  0.90897367  0.24324576  0.66713507     0.09300
C67         C  0.88748082  0.23073744  0.67506781     0.03100
H68         H  0.92716953  0.27709910  0.68365282     0.10800
H69         H  0.87970138  0.21340260  0.66735707     0.09800
N70         N  0.87884954  0.30706616  0.76355210    -0.34000
N71         N  0.85975762  0.30142261  0.77871665    -0.26200
C72         C  0.86004787  0.31719126  0.79872052    -0.01400
C73         C  0.88021862  0.33349247  0.79587591     0.07200
C74         C  0.89181165  0.32662339  0.77350678     0.05300
H75         H  0.84688911  0.31644010  0.81438562     0.10400
H76         H  0.90871650  0.33479093  0.76535711     0.09200
C77         C  0.45355683  0.05507586  0.04304061    -0.00400
C78         C  0.45599675  0.05943340  0.83470690    -0.00400
C79         C  0.66315715  0.06110021  0.84000241    -0.00400
C80         C  0.65999557  0.05824823  0.04839888    -0.00400
N81         N  0.87779911  0.23444188  0.18843397    -0.25200
N82         N  0.89384892  0.25296554  0.18321382    -0.33000
C83         C  0.91375397  0.25129022  0.19901362     0.03200
C84         C  0.90993937  0.23077424  0.21484852     0.09200
C85         C  0.88705875  0.22046396  0.20768412    -0.03900
H86         H  0.92996478  0.26379425  0.19866583     0.09900
H87         H  0.87801395  0.20380100  0.21552421     0.11100
Cu88       Cu  0.88844917  0.27877109  0.15394842     0.44200
Cu89       Cu  0.84477223  0.22824483  0.16814956     0.42000
Cu90       Cu  0.83362722  0.26836271  0.11341215     0.43900
N91         N  0.87989271  0.30081614  0.12246133    -0.32500
N92         N  0.86007302  0.29701011  0.10763545    -0.26800
C93         C  0.86063272  0.31395796  0.08852634    -0.02900
C94         C  0.88173418  0.32904600  0.09160241     0.07300
C95         C  0.89355394  0.32025894  0.11318902     0.03100
H96         H  0.84695225  0.31489327  0.07331743     0.10800
H97         H  0.91103916  0.32711661  0.12130358     0.09800
N98         N  0.81052440  0.23801266  0.12340170    -0.34000
N99         N  0.81451140  0.22361215  0.14357177    -0.26200
C100        C  0.79704164  0.20507731  0.14423909    -0.01400
C101        C  0.78137241  0.20800789  0.12355741     0.07200
C102        C  0.79039759  0.22895837  0.11066962     0.05300
H103        H  0.79637046  0.19009513  0.15826120     0.10400
H104        H  0.78336971  0.23660535  0.09298676     0.09200
N105        N  0.23637508  0.81459062  0.76289795    -0.25200
N106        N  0.25557456  0.81974745  0.77809408    -0.33000
C107        C  0.25498402  0.80372893  0.79797209     0.03200
C108        C  0.23448611  0.78781567  0.79499544     0.09200
C109        C  0.22305327  0.79516141  0.77267074    -0.03900
H110        H  0.26817601  0.80402387  0.81363048     0.09900
H111        H  0.20601446  0.78739463  0.76442084     0.11100
Cu112      Cu  0.28090390  0.84913455  0.77161690     0.44200
Cu113      Cu  0.22825165  0.83528059  0.73047705     0.42000
Cu114      Cu  0.26922939  0.88873792  0.71653543     0.43900
N115        N  0.30301112  0.88016727  0.76176605    -0.32500
N116        N  0.29880397  0.89454806  0.74162855    -0.26800
C117        C  0.31571979  0.91360473  0.74125758    -0.02900
C118        C  0.33123253  0.91097682  0.76210049     0.09300
C119        C  0.32272247  0.88970158  0.77474732     0.03100
H120        H  0.31619308  0.92861871  0.72726022     0.10800
H121        H  0.32984230  0.88209291  0.79240885     0.09800
N122        N  0.23710304  0.88001042  0.69582721    -0.34000
N123        N  0.22222794  0.86046843  0.70088365    -0.26200
C124        C  0.20235881  0.86092261  0.68499332    -0.01400
C125        C  0.20497143  0.88167903  0.66927466     0.07200
C126        C  0.22708446  0.89342946  0.67658105     0.05300
H127        H  0.18679891  0.84761353  0.68543964     0.10400
H128        H  0.23491535  0.91084280  0.66905504     0.09200
C129        C  0.06000166  0.16116255  0.33965778    -0.00400
C130        C  0.05969090  0.95221371  0.33904288    -0.00400
C131        C  0.05475755  0.95416120  0.54588107    -0.00400
C132        C  0.05665001  0.16273361  0.54659936    -0.00400
N133        N  0.24031163  0.30618475  0.75701249    -0.25200
N134        N  0.26028353  0.30224500  0.77158541    -0.33000
C135        C  0.25995410  0.31899154  0.79079544     0.03200
C136        C  0.23881886  0.33409786  0.78806592     0.09200
C137        C  0.22672468  0.32552625  0.76656881    -0.03900
H138        H  0.27360047  0.31951669  0.80605196     0.09900
H139        H  0.20896686  0.33223667  0.75890095     0.11100
Cu140      Cu  0.28596145  0.27302683  0.76589347     0.44200
Cu141      Cu  0.23143609  0.28393635  0.72590757     0.42000
Cu142      Cu  0.27429230  0.23225237  0.71199750     0.43900
N143        N  0.30780732  0.24150956  0.75716920    -0.32500
N144        N  0.30360127  0.22674516  0.73736613    -0.26800
C145        C  0.32012187  0.20734066  0.73772051    -0.02900
C146        C  0.33539483  0.21014183  0.75869018     0.09300
C147        C  0.32714217  0.23187386  0.77067655     0.03100
H148        H  0.32041699  0.19194913  0.72417845     0.10800
H149        H  0.33412647  0.23969914  0.78827104     0.09800
N150        N  0.24166505  0.23940416  0.69160726    -0.34000
N151        N  0.22589624  0.25818635  0.69678420    -0.26200
C152        C  0.20580430  0.25661219  0.68125754    -0.01400
C153        C  0.20924124  0.23591273  0.66567164     0.07200
C154        C  0.23205200  0.22536930  0.67265772     0.05300
H155        H  0.18959792  0.26913140  0.68183461     0.10400
H156        H  0.24064462  0.20832415  0.66515721     0.09200
N157        N  0.23750416  0.23229955  0.18346521    -0.25200
N158        N  0.22225777  0.25178412  0.17934579    -0.33000
C159        C  0.20305381  0.25090078  0.19598549     0.03200
C160        C  0.20649270  0.22990790  0.21120715     0.09200
C161        C  0.22839440  0.21845906  0.20284930    -0.03900
H162        H  0.18762412  0.26436676  0.19670473     0.09900
H163        H  0.23693683  0.20124401  0.21007119     0.11100
Cu164      Cu  0.22768427  0.27828390  0.15091437     0.44200
Cu165      Cu  0.26955954  0.22506196  0.16214902     0.42000
Cu166      Cu  0.28287414  0.26939119  0.11149725     0.43900
N167        N  0.23667848  0.30154817  0.12063829    -0.32500
N168        N  0.25692184  0.29835561  0.10629650    -0.26800
C169        C  0.25669022  0.31571740  0.08760712    -0.02900
C170        C  0.23534351  0.33044917  0.09047501     0.09300
C171        C  0.22300245  0.32102690  0.11146844     0.03100
H172        H  0.27058607  0.31695075  0.07262769     0.10800
H173        H  0.20507192  0.32729860  0.11906985     0.09800
N174        N  0.30460972  0.23754783  0.11891070    -0.34000
N175        N  0.29970226  0.22132602  0.13741158    -0.26200
C176        C  0.31623669  0.20197584  0.13621107    -0.01400
C177        C  0.33221879  0.20634936  0.11605311     0.07200
C178        C  0.32439538  0.22894975  0.10541696     0.05300
H179        H  0.31602388  0.18554568  0.14852904     0.10400
H180        H  0.33187842  0.23801449  0.08861837     0.09200
N181        N  0.88851071  0.85601095  0.69952980    -0.25200
N182        N  0.87430445  0.87616698  0.69492245    -0.33000
C183        C  0.88459705  0.88951616  0.67579550     0.03200
C184        C  0.90621227  0.87709463  0.66808228     0.09200
C185        C  0.90824596  0.85599502  0.68345953    -0.03900
H186        H  0.87728082  0.90729980  0.66859272     0.09900
H187        H  0.92328691  0.84207344  0.68349311     0.11100
Cu188      Cu  0.84263712  0.88559607  0.71601114     0.44200
Cu189      Cu  0.88132854  0.83046197  0.72856590     0.42000
Cu190      Cu  0.82777069  0.84452180  0.76910986     0.43900
N191        N  0.81306231  0.89215843  0.74089754    -0.32500
N192        N  0.80763778  0.87722735  0.76032183    -0.26800
C193        C  0.78824188  0.88738024  0.77332463    -0.02900
C194        C  0.78120580  0.90962698  0.76141572     0.09300
C195        C  0.79727591  0.91218742  0.74101103     0.03100
H196        H  0.78033124  0.87948336  0.79050712     0.10800
H197        H  0.79793396  0.92775276  0.72763569     0.09800
N198        N  0.85186442  0.81387158  0.77464324    -0.34000
N199        N  0.87138411  0.80878249  0.75983022    -0.26200
C200        C  0.88408805  0.78882613  0.76940064    -0.01400
C201        C  0.87191992  0.78103538  0.79116097     0.07200
C202        C  0.85163735  0.79726136  0.79403927     0.05300
H203        H  0.90144078  0.78124961  0.76163880     0.10400
H204        H  0.83831322  0.79764997  0.80957408     0.09200
C205        C  0.15675250  0.20840278  0.61635943     0.19200
C206        C  0.13506298  0.22300925  0.61198399    -0.10000
C207        C  0.11588655  0.21378808  0.59631156    -0.10800
C208        C  0.11830470  0.18991534  0.58493822     0.20700
C209        C  0.14007805  0.17534729  0.58914375    -0.12800
C210        C  0.15928972  0.18458550  0.60484235    -0.11100
C211        C  0.09790735  0.18005859  0.56990657     0.01700
C212        C  0.07975744  0.17212514  0.55861941    -0.31100
C213        C  0.17606386  0.21774672  0.63307855     0.03100
C214        C  0.19154272  0.22598406  0.64763902    -0.32800
H215        H  0.13288554  0.24140961  0.62086076     0.14100
H216        H  0.09905826  0.22512898  0.59329728     0.13900
H217        H  0.14205798  0.15679343  0.58054608     0.13800
H218        H  0.17596407  0.17310937  0.60817072     0.12800
C219        C  0.99512817  0.92380448  0.58517948     0.19200
C220        C  0.97975868  0.94010586  0.59937505    -0.10000
C221        C  0.96128342  0.93013539  0.61548696    -0.10800
C222        C  0.95809644  0.90381081  0.61750269     0.20700
C223        C  0.97336613  0.88749346  0.60319278    -0.12800
C224        C  0.99186063  0.89747396  0.58706845    -0.11100
C225        C  0.93952310  0.89363853  0.63465247     0.01700
C226        C  0.92418372  0.88573307  0.64958957    -0.31100
C227        C  0.01493209  0.93411296  0.56959187     0.03100
C228        C  0.03237309  0.94308578  0.55791831    -0.32800
H229        H  0.98224024  0.96048594  0.59819009     0.14100
H230        H  0.94964416  0.94292547  0.62652472     0.13900
H231        H  0.97112370  0.86710633  0.60466789     0.13800
H232        H  0.00376215  0.88469216  0.57630587     0.12800
C233        C  0.05316524  0.08511825  0.55236088     0.19200
C234        C  0.06962467  0.07143598  0.56807693    -0.10000
C235        C  0.06950870  0.04488083  0.56762908    -0.10800
C236        C  0.05294271  0.03193799  0.55145649     0.20700
C237        C  0.03631013  0.04563561  0.53595504    -0.12800
C238        C  0.03642460  0.07216393  0.53640425    -0.11100
C239        C  0.05341460  0.00466396  0.55023605     0.01700
C240        C  0.05394980  0.98184081  0.54853059    -0.31100
C241        C  0.05404219  0.11239416  0.55182210     0.03100
C242        C  0.05503722  0.13519630  0.55010464    -0.32800
H243        H  0.08271371  0.08127557  0.58041566     0.14100
H244        H  0.08248636  0.03446748  0.57965431     0.13900
H245        H  0.02346613  0.03581916  0.52334169     0.13800
H246        H  0.02369185  0.08256634  0.52410669     0.12800
C247        C  0.05635941  0.94149637  0.46914596     0.19200
C248        C  0.07924969  0.93731191  0.45645619    -0.10000
C249        C  0.07990854  0.93700267  0.42994460    -0.10800
C250        C  0.05767717  0.94087112  0.41600664     0.20700
C251        C  0.03472212  0.94453684  0.42871713    -0.12800
C252        C  0.03406430  0.94484731  0.45520424    -0.11100
C253        C  0.05858238  0.94265981  0.38877858     0.01700
C254        C  0.05912432  0.94596348  0.36614362    -0.31100
C255        C  0.05592974  0.94390111  0.49632603     0.03100
C256        C  0.05543130  0.94762098  0.51888201    -0.32800
H257        H  0.09663374  0.93483846  0.46702679     0.14100
H258        H  0.09779464  0.93429690  0.42033567     0.13900
H259        H  0.01744063  0.94769724  0.41815717     0.13800
H260        H  0.01628286  0.94824096  0.46479312     0.12800
C261        C  0.15725559  0.20593030  0.26551417     0.19200
C262        C  0.13902388  0.22294094  0.27456956    -0.10000
C263        C  0.12047271  0.21459846  0.29149375    -0.10800
C264        C  0.12009823  0.18921834  0.29942939     0.20700
C265        C  0.13857918  0.17230616  0.29069420    -0.12800
C266        C  0.15713103  0.18064880  0.27376655    -0.11100
C267        C  0.09992187  0.18016937  0.31528045     0.01700
C268        C  0.08222705  0.17196149  0.32711193    -0.31100
C269        C  0.17545188  0.21420245  0.24705119     0.03100
C270        C  0.18998457  0.22124559  0.23095539    -0.32800
H271        H  0.13890980  0.24251171  0.26823669     0.14100
H272        H  0.10617652  0.22778869  0.29801372     0.13900
H273        H  0.13836042  0.15260223  0.29659642     0.13800
H274        H  0.17109650  0.16732580  0.26681231     0.12800
C275        C  0.06082919  0.03010499  0.33426498     0.19200
C276        C  0.07948758  0.04356007  0.32102082    -0.10000
C277        C  0.07942151  0.07014300  0.32116883    -0.10800
C278        C  0.06070178  0.08333450  0.33456406     0.20700
C279        C  0.04199622  0.06986201  0.34765816    -0.12800
C280        C  0.04206233  0.04333355  0.34751151    -0.11100
C281        C  0.06082748  0.11063815  0.33536651     0.01700
C282        C  0.06053408  0.13347937  0.33693449    -0.31100
C283        C  0.06102923  0.00277355  0.33473639     0.03100
C284        C  0.06059987  0.97990762  0.33616896    -0.32800
H285        H  0.09412020  0.03352831  0.31074686     0.14100
H286        H  0.09400711  0.08037859  0.31101215     0.13900
H287        H  0.02746612  0.07986290  0.35811140     0.13800
H288        H  0.02757745  0.03313604  0.35785115     0.12800
C289        C  0.05891971  0.17277737  0.46955597     0.19200
C290        C  0.08124275  0.16635353  0.45680877    -0.10000
C291        C  0.08188416  0.16633506  0.43032661    -0.10800
C292        C  0.06020123  0.17273809  0.41647094     0.20700
C293        C  0.03798122  0.17951725  0.42921780    -0.12800
C294        C  0.03733894  0.17953342  0.45571008    -0.11100
C295        C  0.06033860  0.17087379  0.38927757     0.01700
C296        C  0.06022717  0.16752557  0.36667615    -0.31100
C297        C  0.05787193  0.17121416  0.49674831     0.03100
C298        C  0.05716927  0.16834026  0.51940915    -0.32800
H299        H  0.09799468  0.16094864  0.46732649     0.14100
H300        H  0.09911414  0.16088599  0.42067061     0.13900
H301        H  0.02105729  0.18432485  0.41869275     0.13800
H302        H  0.01993671  0.18438255  0.46537168     0.12800
C303        C  0.11451271  0.92619571  0.58679608     0.19200
C304        C  0.10962857  0.90527512  0.60245489    -0.10000
C305        C  0.12847313  0.89597847  0.61855545    -0.10800
C306        C  0.15228777  0.90757010  0.61908263     0.20700
C307        C  0.15720810  0.92845366  0.60337154    -0.12800
C308        C  0.13834572  0.93775906  0.58725700    -0.11100
C309        C  0.17145006  0.89830388  0.63609188     0.01700
C310        C  0.18703358  0.89062177  0.65089553    -0.31100
C311        C  0.09478869  0.93614296  0.57086827     0.03100
C312        C  0.07729637  0.94435029  0.55870725    -0.32800
H313        H  0.09121739  0.89627936  0.60234021     0.14100
H314        H  0.12443688  0.87988017  0.63068785     0.13900
H315        H  0.17553256  0.93761241  0.60369919     0.13800
H316        H  0.14227243  0.95402828  0.57532030     0.12800
C317        C  0.96014634  0.20447060  0.26757035     0.19200
C318        C  0.97169452  0.22140131  0.28444853    -0.10000
C319        C  0.99063720  0.21286117  0.30091384    -0.10800
C320        C  0.99810915  0.18733976  0.30058904     0.20700
C321        C  0.98622087  0.17031767  0.28406075    -0.12800
C322        C  0.96729601  0.17885323  0.26759986    -0.11100
C323        C  0.01886274  0.17882578  0.31610373     0.01700
C324        C  0.03707536  0.17116425  0.32758825    -0.31100
C325        C  0.94172287  0.21355794  0.24957502     0.03100
C326        C  0.92695125  0.22134571  0.23395349    -0.32800
H327        H  0.96636686  0.24125857  0.28457107     0.14100
H328        H  0.99975974  0.22622134  0.31353142     0.13900
H329        H  0.99191146  0.15056548  0.28356633     0.13800
H330        H  0.95855633  0.16558811  0.25461585     0.12800
C331        C  0.69696568  0.11879315  0.08030716     0.19200
C332        C  0.69779335  0.14269200  0.06865664    -0.10000
C333        C  0.71350226  0.16171080  0.07835984    -0.10800
C334        C  0.72846641  0.15692088  0.09975445     0.20700
C335        C  0.72725691  0.13316878  0.11168999    -0.12800
C336        C  0.71155426  0.11415644  0.10198883    -0.11100
C337        C  0.74598285  0.17585977  0.10868213     0.01700
C338        C  0.76163826  0.19098875  0.11562743    -0.31100
C339        C  0.68227762  0.09861472  0.06929726     0.03100
C340        C  0.67138297  0.08088318  0.05982258    -0.32800
H341        H  0.68668814  0.14645635  0.05182010     0.14100
H342        H  0.71434365  0.17995808  0.06891165     0.13900
H343        H  0.73880132  0.12919726  0.12818010     0.13800
H344        H  0.71116020  0.09571143  0.11108735     0.12800
C345        C  0.73114963  0.96222324  0.78790233     0.19200
C346        C  0.72353797  0.98286643  0.77295461    -0.10000
C347        C  0.70838554  0.00197678  0.78335998    -0.10800
C348        C  0.70077177  0.00051894  0.80874995     0.20700
C349        C  0.70812339  0.97972173  0.82358720    -0.12800
C350        C  0.72326583  0.96062388  0.81318920    -0.11100
C351        C  0.68630917  0.02082121  0.81984154     0.01700
C352        C  0.67521398  0.03852258  0.82915012    -0.31100
C353        C  0.74784719  0.94321152  0.77769411     0.03100
C354        C  0.76265910  0.92765324  0.76991537    -0.32800
H355        H  0.72959685  0.98436103  0.75340987     0.14100
H356        H  0.70290697  0.01803088  0.77173886     0.13900
H357        H  0.70244535  0.97844968  0.84326190     0.13800
H358        H  0.72911459  0.94480853  0.82495236     0.12800
C359        C  0.66619604  0.05978589  0.97079642     0.19200
C360        C  0.67878911  0.07937280  0.95799309    -0.10000
C361        C  0.67937872  0.07971229  0.93148338    -0.10800
C362        C  0.66738258  0.06045851  0.91769193     0.20700
C363        C  0.65480372  0.04089409  0.93051088    -0.12800
C364        C  0.65421494  0.04055479  0.95698523    -0.11100
C365        C  0.66744535  0.06094042  0.89042836     0.01700
C366        C  0.66629052  0.06103101  0.86760131    -0.31100
C367        C  0.66516341  0.05954657  0.99804900     0.03100
C368        C  0.66341127  0.05906093  0.02083699    -0.32800
H369        H  0.68803529  0.09439340  0.96848053     0.14100
H370        H  0.68906112  0.09499851  0.92176512     0.13900
H371        H  0.64536372  0.02597987  0.92004116     0.13800
H372        H  0.64434014  0.02537400  0.96667683     0.12800
C373        C  0.41805427  0.12044274  0.80467691     0.19200
C374        C  0.41018675  0.11944938  0.77934821    -0.10000
C375        C  0.39444603  0.13842058  0.76955159    -0.10800
C376        C  0.38649055  0.15846000  0.78504722     0.20700
C377        C  0.39457912  0.15959992  0.81029409    -0.12800
C378        C  0.41031879  0.14062967  0.82009006    -0.11100
C379        C  0.36933244  0.17732718  0.77533872     0.01700
C380        C  0.35422895  0.19261453  0.76757173    -0.31100
C381        C  0.43302881  0.10014949  0.81513752     0.03100
C382        C  0.44426631  0.08228374  0.82400345    -0.32800
H383        H  0.41592290  0.10384490  0.76730222     0.14100
H384        H  0.38822114  0.13728951  0.75003382     0.13900
H385        H  0.38845640  0.17494927  0.82247355     0.13800
H386        H  0.41615670  0.14150765  0.83973995     0.12800
C387        C  0.41693755  0.99933267  0.80467126     0.19200
C388        C  0.41017262  0.97880333  0.82014328    -0.10000
C389        C  0.39378241  0.96009965  0.81101737    -0.10800
C390        C  0.38406836  0.96184703  0.78637970     0.20700
C391        C  0.39107571  0.98222015  0.77080170    -0.12800
C392        C  0.40746570  0.00092650  0.77992982    -0.11100
C393        C  0.36624291  0.94326125  0.77741881     0.01700
C394        C  0.35062512  0.92822947  0.77024734    -0.31100
C395        C  0.43246313  0.01941008  0.81462204     0.03100
C396        C  0.44403516  0.03702565  0.82346425    -0.32800
H397        H  0.41724779  0.97746969  0.83935957     0.14100
H398        H  0.38841689  0.94449192  0.82326566     0.13900
H399        H  0.38360303  0.98382305  0.75175789     0.13800
H400        H  0.41243326  0.01680610  0.76785954     0.12800
C401        C  0.58622354  0.06033544  0.83030612     0.19200
C402        C  0.57371343  0.05712339  0.80712387    -0.10000
C403        C  0.54725308  0.05674214  0.80628503    -0.10800
C404        C  0.53323576  0.05956589  0.82862882     0.20700
C405        C  0.54578091  0.06267314  0.85179334    -0.12800
C406        C  0.57218196  0.06305660  0.85262939    -0.11100
C407        C  0.50601919  0.05934150  0.82805386     0.01700
C408        C  0.48326127  0.05934228  0.82967325    -0.31100
C409        C  0.61341340  0.06077265  0.83143353     0.03100
C410        C  0.63605930  0.06107318  0.83416417    -0.32800
H411        H  0.58438396  0.05494456  0.78975466     0.14100
H412        H  0.53775494  0.05428795  0.78827601     0.13900
H413        H  0.53514639  0.06482998  0.86919643     0.13800
H414        H  0.58164554  0.06549232  0.87066755     0.12800
C415        C  0.41418253  0.11662411  0.06959547     0.19200
C416        C  0.39504034  0.12673928  0.05426054    -0.10000
C417        C  0.37936893  0.14596902  0.06353706    -0.10800
C418        C  0.38277527  0.15515742  0.08818925     0.20700
C419        C  0.40205408  0.14519630  0.10345384    -0.12800
C420        C  0.41773178  0.12595645  0.09417315    -0.11100
C421        C  0.36593364  0.17414675  0.09807471     0.01700
C422        C  0.35101786  0.18929981  0.10634975    -0.31100
C423        C  0.42946624  0.09601795  0.06042436     0.03100
C424        C  0.44111664  0.07796175  0.05265242    -0.32800
H425        H  0.39205044  0.11955799  0.03527464     0.14100
H426        H  0.36444114  0.15345681  0.05161985     0.13900
H427        H  0.40476754  0.15208760  0.12258579     0.13800
H428        H  0.43239043  0.11816638  0.10623007     0.12800
C429        C  0.45007836  0.05515673  0.96526911     0.19200
C430        C  0.42986677  0.06648883  0.95232334    -0.10000
C431        C  0.42985277  0.06738494  0.92582467    -0.10800
C432        C  0.45006094  0.05696248  0.91219635     0.20700
C433        C  0.47020845  0.04555702  0.92515303    -0.12800
C434        C  0.47022066  0.04465896  0.95161847    -0.11100
C435        C  0.45046284  0.05822277  0.88497256     0.01700
C436        C  0.45215565  0.05898646  0.86219936    -0.31100
C437        C  0.45044211  0.05466952  0.99252370     0.03100
C438        C  0.45145409  0.05457883  0.01535418    -0.32800
H439        H  0.41422762  0.07472534  0.96269920     0.14100
H440        H  0.41420321  0.07629288  0.91599571     0.13900
H441        H  0.48595547  0.03749040  0.91480085     0.13800
H442        H  0.48597505  0.03591509  0.96143045     0.12800
C443        C  0.52997307  0.05565881  0.05655315     0.19200
C444        C  0.54365156  0.03299199  0.05431159    -0.10000
C445        C  0.57008350  0.03335787  0.05493572    -0.10800
C446        C  0.58298676  0.05639308  0.05781465     0.20700
C447        C  0.56930566  0.07902676  0.06044950    -0.12800
C448        C  0.54285839  0.07866067  0.05982401    -0.11100
C449        C  0.61018575  0.05693525  0.05665147     0.01700
C450        C  0.63284203  0.05743037  0.05397758    -0.31100
C451        C  0.50286882  0.05544650  0.05397506     0.03100
C452        C  0.48039161  0.05522018  0.05004467    -0.32800
H453        H  0.53390541  0.01512098  0.05159619     0.14100
H454        H  0.58045306  0.01576438  0.05270764     0.13900
H455        H  0.57907504  0.09697271  0.06251390     0.13800
H456        H  0.53249269  0.09632825  0.06139981     0.12800
C457        C  0.96041658  0.21767450  0.61558624     0.19200
C458        C  0.98487421  0.22786170  0.61561073    -0.10000
C459        C  0.00358937  0.21736454  0.60012076    -0.10800
C460        C  0.99794129  0.19663173  0.58452156     0.20700
C461        C  0.97340267  0.18665143  0.58423397    -0.12800
C462        C  0.95467763  0.19715318  0.59973265    -0.11100
C463        C  0.01760077  0.18498563  0.56969980     0.01700
C464        C  0.03478998  0.17497295  0.55849950    -0.31100
C465        C  0.94159531  0.22752952  0.63265297     0.03100
C466        C  0.92639507  0.23509388  0.64790375    -0.32800
H467        H  0.98956403  0.24364310  0.62787439     0.14100
H468        H  0.02253155  0.22515619  0.60058591     0.13900
H469        H  0.96885706  0.17054963  0.57233686     0.13800
H470        H  0.93586649  0.18904331  0.59964467     0.12800
C471        C  0.73495751  0.15755697  0.78908275     0.19200
C472        C  0.71363344  0.16473221  0.80310545    -0.10000
C473        C  0.69764050  0.14617517  0.81327060    -0.10800
C474        C  0.70294574  0.12040438  0.80943561     0.20700
C475        C  0.72421740  0.11327246  0.79534180    -0.12800
C476        C  0.74018259  0.13179546  0.78519814    -0.11100
C477        C  0.68705564  0.10112511  0.82033836     0.01700
C478        C  0.67526487  0.08372370  0.82933437    -0.31100
C479        C  0.75185128  0.17649293  0.77914892     0.03100
C480        C  0.76682505  0.19181074  0.77126821    -0.32800
H481        H  0.70948216  0.18460880  0.80630467     0.14100
H482        H  0.68129304  0.15189160  0.82422007     0.13900
H483        H  0.72854304  0.09339646  0.79234473     0.13800
H484        H  0.75667039  0.12603770  0.77447701     0.12800
C485        C  0.15765307  0.90135054  0.26941256     0.19200
C486        C  0.14750060  0.92533828  0.26409229    -0.10000
C487        C  0.12877579  0.93558866  0.27970612    -0.10800
C488        C  0.12008400  0.92192273  0.30074590     0.20700
C489        C  0.13043276  0.89804886  0.30627700    -0.12800
C490        C  0.14919559  0.88778058  0.29063654    -0.11100
C491        C  0.09985455  0.93206704  0.31590596     0.01700
C492        C  0.08210719  0.94098672  0.32716259    -0.31100
C493        C  0.17629345  0.89058423  0.25269646     0.03100
C494        C  0.19149604  0.88235720  0.23779311    -0.32800
H495        H  0.15386473  0.93598981  0.24772576     0.14100
H496        H  0.12085023  0.95401779  0.27519431     0.13900
H497        H  0.12378969  0.88727343  0.32244713     0.13800
H498        H  0.15688919  0.86920269  0.29491911     0.12800
C499        C  0.41383657  0.99549731  0.07365520     0.19200
C500        C  0.40606579  0.99704274  0.09898135    -0.10000
C501        C  0.39021169  0.97840534  0.10919029    -0.10800
C502        C  0.38202756  0.95813700  0.09412092     0.20700
C503        C  0.38998252  0.95646834  0.06885685    -0.12800
C504        C  0.40583978  0.97510928  0.05864658    -0.11100
C505        C  0.36488422  0.93951314  0.10433588     0.01700
C506        C  0.34991883  0.92432044  0.11255031    -0.31100
C507        C  0.42917645  0.01532405  0.06285019     0.03100
C508        C  0.44094518  0.03274615  0.05381655    -0.32800
H509        H  0.41202162  0.01278787  0.11072938     0.14100
H510        H  0.38411842  0.97994589  0.12871685     0.13900
H511        H  0.38370916  0.94093440  0.05699710     0.13800
H512        H  0.41162001  0.97378474  0.03900858     0.12800
C513        C  0.20940818  0.73258564  0.03867397     0.19200
C514        C  0.18374134  0.73357836  0.03221903    -0.10000
C515        C  0.17415083  0.71751506  0.01348181    -0.10800
C516        C  0.19016738  0.70036401  0.00110998     0.20700
C517        C  0.21582181  0.69927246  0.00762592    -0.12800
C518        C  0.22542212  0.71534917  0.02638539    -0.11100
C519        C  0.18036910  0.68464786  0.98112358     0.01700
C520        C  0.17162695  0.67285626  0.96362536    -0.31100
C521        C  0.21931918  0.74953543  0.05759645     0.03100
C522        C  0.22736793  0.76416829  0.07317720    -0.32800
H523        H  0.17120029  0.74687388  0.04153937     0.14100
H524        H  0.15431619  0.71861982  0.00848618     0.13900
H525        H  0.22840549  0.68618505  0.99807483     0.13800
H526        H  0.24531483  0.71446892  0.03117659     0.12800
C527        C  0.20788656  0.73512080  0.84512095     0.19200
C528        C  0.22427179  0.71959293  0.85912009    -0.10000
C529        C  0.21457026  0.70271439  0.87714590    -0.10800
C530        C  0.18844458  0.70126825  0.88123568     0.20700
C531        C  0.17204299  0.71660028  0.86705227    -0.12800
C532        C  0.18174063  0.73347272  0.84903013    -0.11100
C533        C  0.17858904  0.68512325  0.90090440     0.01700
C534        C  0.17041562  0.67305144  0.91852482    -0.31100
C535        C  0.21785797  0.75315569  0.82719001     0.03100
C536        C  0.22574528  0.76874399  0.81241817    -0.32800
H537        H  0.24451981  0.72074351  0.85630900     0.14100
H538        H  0.22743601  0.69107580  0.88812993     0.13900
H539        H  0.15182285  0.71577061  0.87017822     0.13800
H540        H  0.16889428  0.74542608  0.83836465     0.12800
C541        C  0.92141811  0.70090021  0.88136133     0.19200
C542        C  0.93410918  0.70465327  0.85836970    -0.10000
C543        C  0.92319804  0.71969507  0.83941555    -0.10800
C544        C  0.89955884  0.73104506  0.84337357     0.20700
C545        C  0.88677317  0.72707408  0.86627064    -0.12800
C546        C  0.89767504  0.71204192  0.88520894    -0.11100
C547        C  0.88891280  0.74756979  0.82439966     0.01700
C548        C  0.88067823  0.76233451  0.80897904    -0.31100
C549        C  0.93299616  0.68638450  0.90137584     0.03100
C550        C  0.94220092  0.67524633  0.91911608    -0.32800
H551        H  0.95251950  0.69622016  0.85522408     0.14100
H552        H  0.93331311  0.72273365  0.82183348     0.13900
H553        H  0.86855208  0.73584622  0.86959861     0.13800
H554        H  0.88774114  0.70935587  0.90295383     0.12800
C555        C  0.08312739  0.66534743  0.94296457     0.19200
C556        C  0.06946956  0.64268656  0.94521775    -0.10000
C557        C  0.04305372  0.64315831  0.94514363    -0.10800
C558        C  0.03017831  0.66629157  0.94280997     0.20700
C559        C  0.04383056  0.68897425  0.94068394    -0.12800
C560        C  0.07027006  0.68850171  0.94075777    -0.11100
C561        C  0.00299522  0.66660618  0.94239430     0.01700
C562        C  0.98021691  0.66578117  0.94204024    -0.31100
C563        C  0.11029285  0.66471748  0.94261100     0.03100
C564        C  0.13303571  0.66338891  0.94208757    -0.32800
H565        H  0.07923289  0.62467857  0.94691650     0.14100
H566        H  0.03267743  0.62550815  0.94679761     0.13900
H567        H  0.03405635  0.70696008  0.93886993     0.13800
H568        H  0.08066359  0.70612681  0.93898818     0.12800
C569        C  0.90779850  0.38299081  0.04247487     0.19200
C570        C  0.89315566  0.38972200  0.02139473    -0.10000
C571        C  0.90281027  0.40639382  0.00317872    -0.10800
C572        C  0.92716208  0.41645328  0.00592440     0.20700
C573        C  0.94168274  0.41006965  0.02721288    -0.12800
C574        C  0.93201197  0.39337822  0.04545938    -0.11100
C575        C  0.93758237  0.43215353  0.98616960     0.01700
C576        C  0.94580868  0.44384676  0.96830988    -0.31100
C577        C  0.89832205  0.36470137  0.06044409     0.03100
C578        C  0.89055477  0.34871384  0.07486661    -0.32800
H579        H  0.87445124  0.38176955  0.01883602     0.14100
H580        H  0.89146627  0.41108737  0.98673420     0.13900
H581        H  0.96058709  0.41762618  0.02947366     0.13800
H582        H  0.94354039  0.38826226  0.06164442     0.12800
C583        C  0.90597405  0.38456577  0.84773984     0.19200
C584        C  0.93213145  0.38673760  0.85120397    -0.10000
C585        C  0.94173373  0.40264781  0.87005178    -0.10800
C586        C  0.92522222  0.41646926  0.88551854     0.20700
C587        C  0.89905757  0.41449090  0.88192199    -0.12800
C588        C  0.88944422  0.39856417  0.86305309    -0.11100
C589        C  0.93516338  0.43182836  0.90568433     0.01700
C590        C  0.94398806  0.44352405  0.92319176    -0.31100
C591        C  0.89620285  0.36740687  0.82897012     0.03100
C592        C  0.88863920  0.35229528  0.81362616    -0.32800
H593        H  0.94507314  0.37593153  0.83952834     0.14100
H594        H  0.96199127  0.40394216  0.87276292     0.13900
H595        H  0.88612558  0.42500186  0.89387161     0.13800
H596        H  0.86918017  0.39695469  0.86058997     0.12800
C597        C  0.94161875  0.58610851  0.94328737     0.19200
C598        C  0.94511036  0.57329249  0.96629496    -0.10000
C599        C  0.94550461  0.54675928  0.96688443    -0.10800
C600        C  0.94241907  0.53291059  0.94446756     0.20700
C601        C  0.93848504  0.54571088  0.92151090    -0.12800
C602        C  0.93809029  0.57226506  0.92092102    -0.11100
C603        C  0.94483803  0.50570277  0.94483992     0.01700
C604        C  0.94859442  0.48311531  0.94512964    -0.31100
C605        C  0.94319620  0.61336665  0.94247887     0.03100
C606        C  0.94636852  0.63603826  0.94206954    -0.32800
H607        H  0.94803382  0.58380514  0.98367201     0.14100
H608        H  0.94872886  0.53706424  0.98470809     0.13900
H609        H  0.93624679  0.53519314  0.90403616     0.13800
H610        H  0.93555013  0.58198134  0.90299941     0.12800
C611        C  0.20894059  0.38236951  0.03972851     0.19200
C612        C  0.18314625  0.38228216  0.03375320    -0.10000
C613        C  0.17390360  0.39816336  0.01464635    -0.10800
C614        C  0.19041946  0.41419176  0.00144225     0.20700
C615        C  0.21616794  0.41452322  0.00763328    -0.12800
C616        C  0.22541671  0.39863262  0.02675454    -0.11100
C617        C  0.18109890  0.42934290  0.98078393     0.01700
C618        C  0.17301809  0.44078003  0.96271720    -0.31100
C619        C  0.21858530  0.36506933  0.05846217     0.03100
C620        C  0.22640397  0.34971073  0.07346055    -0.32800
H621        H  0.17026980  0.36969725  0.04360347     0.14100
H622        H  0.15398331  0.39766983  0.00990980     0.13900
H623        H  0.22911482  0.42675408  0.99744105     0.13800
H624        H  0.24541516  0.39876034  0.03116664     0.12800
C625        C  0.21232076  0.38435127  0.84044205     0.19200
C626        C  0.22768509  0.39107143  0.86098595    -0.10000
C627        C  0.21809846  0.40643885  0.88031690    -0.10800
C628        C  0.19310259  0.41516599  0.87918933     0.20700
C629        C  0.17780316  0.40863932  0.85853491    -0.12800
C630        C  0.18739088  0.39326629  0.83920016    -0.11100
C631        C  0.18285856  0.42990050  0.89970232     0.01700
C632        C  0.17397771  0.44110695  0.91751749    -0.31100
C633        C  0.22187092  0.36761484  0.82114452     0.03100
C634        C  0.22973312  0.35278308  0.80565376    -0.32800
H635        H  0.24694902  0.38419246  0.86220252     0.14100
H636        H  0.23005124  0.41124784  0.89626827     0.13900
H637        H  0.15840508  0.41516408  0.85754224     0.13800
H638        H  0.17530330  0.38809620  0.82346698     0.12800
C639        C  0.08547274  0.44882208  0.93952637     0.19200
C640        C  0.07235424  0.43428769  0.95744501    -0.10000
C641        C  0.04595132  0.43512254  0.95831439    -0.10800
C642        C  0.03258149  0.45051215  0.94128833     0.20700
C643        C  0.04569705  0.46489296  0.92323249    -0.12800
C644        C  0.07209792  0.46405706  0.92236254    -0.11100
C645        C  0.00547310  0.45194034  0.94267839     0.01700
C646        C  0.98277385  0.45356599  0.94395327    -0.31100
C647        C  0.11263943  0.44880718  0.93928429     0.03100
C648        C  0.13539150  0.44996816  0.93942514    -0.32800
H649        H  0.08252931  0.42253040  0.97086847     0.14100
H650        H  0.03598730  0.42396770  0.97237581     0.13900
H651        H  0.03554034  0.47689278  0.91000914     0.13800
H652        H  0.08207723  0.47545250  0.90850247     0.12800
C653        C  0.17128782  0.58349629  0.94146368     0.19200
C654        C  0.17948610  0.57038269  0.91990579    -0.10000
C655        C  0.17985539  0.54382769  0.91981552    -0.10800
C656        C  0.17203078  0.53028817  0.94128129     0.20700
C657        C  0.16395369  0.54340453  0.96288292    -0.12800
C658        C  0.16358440  0.56994679  0.96297342    -0.11100
C659        C  0.17114711  0.50300034  0.94077840     0.01700
C660        C  0.16864631  0.48025149  0.94034560    -0.31100
C661        C  0.16972347  0.61077059  0.94120336     0.03100
C662        C  0.16675250  0.63347869  0.94113435    -0.32800
H663        H  0.18529101  0.58066427  0.90310333     0.14100
H664        H  0.18593105  0.53387007  0.90294051     0.13900
H665        H  0.15765766  0.53312271  0.97950991     0.13800
H666        H  0.15701660  0.57988810  0.97967444     0.12800
C667        C  0.99842717  0.92478378  0.29965936     0.19200
C668        C  0.98693261  0.94052784  0.28159800    -0.10000
C669        C  0.96785788  0.93099340  0.26590557    -0.10800
C670        C  0.96014476  0.90564222  0.26814227     0.20700
C671        C  0.97141266  0.88996325  0.28642839    -0.12800
C672        C  0.99050784  0.89951005  0.30214001    -0.11100
C673        C  0.94127467  0.89564744  0.25111645     0.01700
C674        C  0.92598744  0.88782611  0.23602837    -0.31100
C675        C  0.01899824  0.93431069  0.31484588     0.03100
C676        C  0.03696375  0.94236742  0.32645233    -0.32800
H677        H  0.99294506  0.96006475  0.27941989     0.14100
H678        H  0.95935148  0.94329423  0.25181728     0.13900
H679        H  0.96567200  0.87031730  0.28831854     0.13800
H680        H  0.99931110  0.88711838  0.31596222     0.12800
C681        C  0.73101716  0.96016598  0.09834699     0.19200
C682        C  0.71214131  0.95398691  0.08076967    -0.10000
C683        C  0.69663759  0.97303609  0.07068350    -0.10800
C684        C  0.69995125  0.99833766  0.07813686     0.20700
C685        C  0.71878204  0.00448363  0.09575866    -0.12800
C686        C  0.73426599  0.98545803  0.10583267    -0.11100
C687        C  0.68446941  0.01813719  0.06743701     0.01700
C688        C  0.67261551  0.03566923  0.05869199    -0.31100
C689        C  0.74746960  0.94075276  0.10827986     0.03100
C690        C  0.76208273  0.92510435  0.11631685    -0.32800
H691        H  0.70952298  0.93451182  0.07476158     0.14100
H692        H  0.68220380  0.96807380  0.05700422     0.13900
H693        H  0.72158211  0.02399176  0.10159146     0.13800
H694        H  0.74885813  0.99048256  0.11932337     0.12800
C695        C  0.92280900  0.70202025  0.00221302     0.19200
C696        C  0.93800051  0.70916004  0.02274075    -0.10000
C697        C  0.92826059  0.72497553  0.04164132    -0.10800
C698        C  0.90328911  0.73373450  0.04009537     0.20700
C699        C  0.88799727  0.72631143  0.01973677    -0.12800
C700        C  0.89773699  0.71049765  0.00083818    -0.11100
C701        C  0.89364764  0.75097510  0.05892118     0.01700
C702        C  0.88591627  0.76601377  0.07429405    -0.31100
C703        C  0.93323720  0.68698924  0.98200464     0.03100
C704        C  0.94203579  0.67553896  0.96430096    -0.32800
H705        H  0.95744507  0.70281204  0.02393849     0.14100
H706        H  0.94028014  0.73064144  0.05725537     0.13900
H707        H  0.86868772  0.73301483  0.01830226     0.13800
H708        H  0.88585639  0.70519045  0.98499048     0.12800
loop_ 
_geom_bond_atom_site_label_1 
_geom_bond_atom_site_label_2 
_geom_bond_distance 
_geom_bond_site_symmetry_2 
_ccdc_geom_bond_type 
N1            N2   1.323       .  A
N1            C5   1.346       .  A
N1           Cu9   2.078       .  S
N2            C3   1.346       .  A
N2           Cu8   2.074       .  S
C3            C4   1.380       .  A
C3            H6   1.082       .  S
C4            C5   1.380       .  A
C4          C702   1.438       .  S
C5            H7   1.082       .  S
Cu8          N11   2.074       .  S
Cu9          N19   2.078       .  S
Cu10         N12   2.078       .  S
Cu10         N18   2.078       .  S
N11          N12   1.323       .  A
N11          C15   1.346       .  A
N12          C13   1.346       .  A
C13          C14   1.380       .  A
C13          H16   1.082       .  S
C14          C15   1.380       .  A
C14         C690   1.438       .  S
C15          H17   1.082       .  S
N18          N19   1.323       .  A
N18          C22   1.347       .  A
N19          C20   1.346       .  A
C20          C21   1.381       .  A
C20          H23   1.082       .  S
C21          C22   1.381       .  A
C21         C674   1.441       .  S
C22          H24   1.082       .  S
C25         C618   1.465       .  S
C25         C632   1.466       .  S
C25         C648   1.464       .  S
C25         C660   1.465       .  S
C26         C576   1.467       .  S
C26         C590   1.465       .  S
C26         C604   1.466       .  S
C26         C646   1.465       .  S
C27         C550   1.467       .  S
C27         C562   1.466       .  S
C27         C606   1.466       .  S
C27         C704   1.466       .  S
C28         C520   1.466       .  S
C28         C534   1.466       .  S
C28         C564   1.465       .  S
C28         C662   1.466       .  S
N29          N30   1.323       .  A
N29          C33   1.346       .  A
N29         Cu37   2.075       .  S
N30          C31   1.345       .  A
N30         Cu36   2.076       .  S
C31          C32   1.379       .  A
C31          H34   1.082       .  S
C32          C33   1.380       .  A
C32         C494   1.438       .  S
C33          H35   1.082       .  S
Cu36         N39   2.076       .  S
Cu37         N47   2.075       .  S
Cu38         N40   2.073       .  S
Cu38         N46   2.073       .  S
N39          N40   1.323       .  A
N39          C43   1.346       .  A
N40          C41   1.345       .  A
C41          C42   1.379       .  A
C41          H44   1.082       .  S
C42          C43   1.380       .  A
C42         C506   1.438       .  S
C43          H45   1.082       .  S
N46          N47   1.323       .  A
N46          C50   1.345       .  A
N47          C48   1.346       .  A
C48          C49   1.380       .  A
C48          H51   1.082       .  S
C49          C50   1.379       .  A
C49         C522   1.437       .  S
C50          H52   1.082       .  S
N53          N54   1.323       .  A
N53          C57   1.344       .  A
N53         Cu61   2.068       .  S
N54          C55   1.346       .  A
N54         Cu60   2.075       .  S
C55          C56   1.380       .  A
C55          H58   1.082       .  S
C56          C57   1.378       .  A
C56         C480   1.435       .  S
C57          H59   1.082       .  S
Cu60         N63   2.075       .  S
Cu61         N71   2.068       .  S
Cu62         N64   2.076       .  S
Cu62         N70   2.076       .  S
N63          N64   1.323       .  A
N63          C67   1.346       .  A
N64          C65   1.346       .  A
C65          C66   1.380       .  A
C65          H68   1.082       .  S
C66          C67   1.380       .  A
C66         C466   1.438       .  S
C67          H69   1.082       .  S
N70          N71   1.323       .  A
N70          C74   1.346       .  A
N71          C72   1.345       .  A
C72          C73   1.378       .  A
C72          H75   1.082       .  S
C73          C74   1.380       .  A
C73         C592   1.436       .  S
C74          H76   1.082       .  S
C77         C424   1.465       .  S
C77         C438   1.466       .  S
C77         C452   1.467       .  S
C77         C508   1.467       .  S
C78         C382   1.467       .  S
C78         C396   1.466       .  S
C78         C408   1.467       .  S
C78         C436   1.466       .  S
C79         C352   1.467       .  S
C79         C366   1.467       .  S
C79         C410   1.466       .  S
C79         C478   1.465       .  S
C80         C340   1.467       .  S
C80         C368   1.467       .  S
C80         C450   1.467       .  S
C80         C688   1.467       .  S
N81          N82   1.323       .  A
N81          C85   1.346       .  A
N81         Cu89   2.076       .  S
N82          C83   1.346       .  A
N82         Cu88   2.076       .  S
C83          C84   1.380       .  A
C83          H86   1.082       .  S
C84          C85   1.380       .  A
C84         C326   1.439       .  S
C85          H87   1.082       .  S
Cu88         N91   2.076       .  S
Cu89         N99   2.075       .  S
Cu90         N92   2.081       .  S
Cu90         N98   2.081       .  S
N91          N92   1.324       .  A
N91          C95   1.346       .  A
N92          C93   1.347       .  A
C93          C94   1.381       .  A
C93          H96   1.082       .  S
C94          C95   1.379       .  A
C94         C578   1.439       .  S
C95          H97   1.082       .  S
N98          N99   1.323       .  A
N98         C102   1.347       .  A
N99         C100   1.345       .  A
C100        C101   1.379       .  A
C100        H103   1.082       .  S
C101        C102   1.381       .  A
C101        C338   1.439       .  S
C102        H104   1.082       .  S
N105        N106   1.323       .  A
N105        C109   1.346       .  A
N105       Cu113   2.073       .  S
N106        C107   1.346       .  A
N106       Cu112   2.076       .  S
C107        C108   1.380       .  A
C107        H110   1.082       .  S
C108        C109   1.379       .  A
C108        C536   1.438       .  S
C109        H111   1.082       .  S
Cu112       N115   2.077       .  S
Cu113       N123   2.073       .  S
Cu114       N116   2.073       .  S
Cu114       N122   2.073       .  S
N115        N116   1.323       .  A
N115        C119   1.346       .  A
N116        C117   1.346       .  A
C117        C118   1.379       .  A
C117        H120   1.082       .  S
C118        C119   1.380       .  A
C118        C394   1.437       .  S
C119        H121   1.082       .  S
N122        N123   1.323       .  A
N122        C126   1.346       .  A
N123        C124   1.345       .  A
C124        C125   1.379       .  A
C124        H127   1.082       .  S
C125        C126   1.379       .  A
C125        C310   1.436       .  S
C126        H128   1.082       .  S
C129        C268   1.465       .  S
C129        C282   1.466       .  S
C129        C296   1.466       .  S
C129        C324   1.467       .  S
C130        C254   1.468       .  S
C130        C284   1.468       .  S
C130        C492   1.467       .  S
C130        C676   1.469       .  S
C131        C228   1.465       .  S
C131        C240   1.466       .  S
C131        C256   1.467       .  S
C131        C312   1.465       .  S
C132        C212   1.464       .  S
C132        C242   1.465       .  S
C132        C298   1.465       .  S
C132        C464   1.466       .  S
N133        N134   1.323       .  A
N133        C137   1.346       .  A
N133       Cu141   2.073       .  S
N134        C135   1.345       .  A
N134       Cu140   2.075       .  S
C135        C136   1.380       .  A
C135        H138   1.082       .  S
C136        C137   1.380       .  A
C136        C634   1.437       .  S
C137        H139   1.082       .  S
Cu140       N143   2.075       .  S
Cu141       N151   2.073       .  S
Cu142       N144   2.069       .  S
Cu142       N150   2.068       .  S
N143        N144   1.323       .  A
N143        C147   1.346       .  A
N144        C145   1.345       .  A
C145        C146   1.379       .  A
C145        H148   1.082       .  S
C146        C147   1.380       .  A
C146        C380   1.436       .  S
C147        H149   1.082       .  S
N150        N151   1.323       .  A
N150        C154   1.345       .  A
N151        C152   1.345       .  A
C152        C153   1.379       .  A
C152        H155   1.082       .  S
C153        C154   1.378       .  A
C153        C214   1.435       .  S
C154        H156   1.082       .  S
N157        N158   1.323       .  A
N157        C161   1.345       .  A
N157       Cu165   2.071       .  S
N158        C159   1.344       .  A
N158       Cu164   2.069       .  S
C159        C160   1.378       .  A
C159        H162   1.082       .  S
C160        C161   1.379       .  A
C160        C270   1.435       .  S
C161        H163   1.082       .  S
Cu164       N167   2.069       .  S
Cu165       N175   2.071       .  S
Cu166       N168   2.070       .  S
Cu166       N174   2.070       .  S
N167        N168   1.323       .  A
N167        C171   1.345       .  A
N168        C169   1.345       .  A
C169        C170   1.379       .  A
C169        H172   1.082       .  S
C170        C171   1.379       .  A
C170        C620   1.434       .  S
C171        H173   1.082       .  S
N174        N175   1.323       .  A
N174        C178   1.345       .  A
N175        C176   1.345       .  A
C176        C177   1.379       .  A
C176        H179   1.082       .  S
C177        C178   1.379       .  A
C177        C422   1.435       .  S
C178        H180   1.082       .  S
N181        N182   1.323       .  A
N181        C185   1.346       .  A
N181       Cu189   2.074       .  S
N182        C183   1.345       .  A
N182       Cu188   2.073       .  S
C183        C184   1.379       .  A
C183        H186   1.082       .  S
C184        C185   1.380       .  A
C184        C226   1.437       .  S
C185        H187   1.082       .  S
Cu188       N191   2.073       .  S
Cu189       N199   2.074       .  S
Cu190       N192   2.077       .  S
Cu190       N198   2.077       .  S
N191        N192   1.323       .  A
N191        C195   1.345       .  A
N192        C193   1.346       .  A
C193        C194   1.380       .  A
C193        H196   1.082       .  S
C194        C195   1.379       .  A
C194        C354   1.438       .  S
C195        H197   1.082       .  S
N198        N199   1.323       .  A
N198        C202   1.346       .  A
N199        C200   1.345       .  A
C200        C201   1.379       .  A
C200        H203   1.082       .  S
C201        C202   1.380       .  A
C201        C548   1.438       .  S
C202        H204   1.082       .  S
C205        C206   1.400       .  A
C205        C210   1.402       .  A
C205        C213   1.438       .  S
C206        C207   1.397       .  A
C206        H215   1.084       .  S
C207        C208   1.400       .  A
C207        H216   1.084       .  S
C208        C209   1.401       .  A
C208        C211   1.437       .  S
C209        C210   1.399       .  A
C209        H217   1.083       .  S
C210        H218   1.083       .  S
C211        C212   1.205       .  T
C213        C214   1.205       .  T
C219        C220   1.401       .  A
C219        C224   1.401       .  A
C219        C227   1.439   1_655  S
C220        C221   1.398       .  A
C220        H229   1.084       .  S
C221        C222   1.401       .  A
C221        H230   1.083       .  S
C222        C223   1.402       .  A
C222        C225   1.440       .  S
C223        C224   1.400       .  A
C223        H231   1.083       .  S
C224        H232   1.083   1_655  S
C225        C226   1.206       .  T
C227        C228   1.206       .  T
C233        C234   1.401       .  A
C233        C238   1.401       .  A
C233        C241   1.438       .  S
C234        C235   1.399       .  A
C234        H243   1.083       .  S
C235        C236   1.402       .  A
C235        H244   1.083       .  S
C236        C237   1.401       .  A
C236        C239   1.439       .  S
C237        C238   1.398       .  A
C237        H245   1.083       .  S
C238        H246   1.084       .  S
C239        C240   1.206   1_545  T
C241        C242   1.206       .  T
C247        C248   1.402       .  A
C247        C252   1.401       .  A
C247        C255   1.441       .  S
C248        C249   1.400       .  A
C248        H257   1.083       .  S
C249        C250   1.402       .  A
C249        H258   1.083       .  S
C250        C251   1.401       .  A
C250        C253   1.441       .  S
C251        C252   1.399       .  A
C251        H259   1.083       .  S
C252        H260   1.083       .  S
C253        C254   1.208       .  T
C255        C256   1.208       .  T
C261        C262   1.401       .  A
C261        C266   1.401       .  A
C261        C269   1.438       .  S
C262        C263   1.398       .  A
C262        H271   1.083       .  S
C263        C264   1.401       .  A
C263        H272   1.083       .  S
C264        C265   1.401       .  A
C264        C267   1.438       .  S
C265        C266   1.398       .  A
C265        H273   1.083       .  S
C266        H274   1.083       .  S
C267        C268   1.206       .  T
C269        C270   1.205       .  T
C275        C276   1.402       .  A
C275        C280   1.401       .  A
C275        C283   1.440       .  S
C276        C277   1.401       .  A
C276        H285   1.083       .  S
C277        C278   1.402       .  A
C277        H286   1.083       .  S
C278        C279   1.400       .  A
C278        C281   1.439       .  S
C279        C280   1.398       .  A
C279        H287   1.084       .  S
C280        H288   1.083       .  S
C281        C282   1.206       .  T
C283        C284   1.207   1_545  T
C289        C290   1.401       .  A
C289        C294   1.401       .  A
C289        C297   1.439       .  S
C290        C291   1.399       .  A
C290        H299   1.084       .  S
C291        C292   1.401       .  A
C291        H300   1.083       .  S
C292        C293   1.401       .  A
C292        C295   1.439       .  S
C293        C294   1.399       .  A
C293        H301   1.083       .  S
C294        H302   1.083       .  S
C295        C296   1.207       .  T
C297        C298   1.206       .  T
C303        C304   1.401       .  A
C303        C308   1.401       .  A
C303        C311   1.438       .  S
C304        C305   1.398       .  A
C304        H313   1.084       .  S
C305        C306   1.401       .  A
C305        H314   1.083       .  S
C306        C307   1.401       .  A
C306        C309   1.439       .  S
C307        C308   1.399       .  A
C307        H315   1.083       .  S
C308        H316   1.083       .  S
C309        C310   1.205       .  T
C311        C312   1.206       .  T
C317        C318   1.402       .  A
C317        C322   1.401       .  A
C317        C325   1.442       .  S
C318        C319   1.400       .  A
C318        H327   1.083       .  S
C319        C320   1.401       .  A
C319        H328   1.083       .  S
C320        C321   1.401       .  A
C320        C323   1.441   1_655  S
C321        C322   1.399       .  A
C321        H329   1.084       .  S
C322        H330   1.083       .  S
C323        C324   1.207       .  T
C325        C326   1.207       .  T
C331        C332   1.401       .  A
C331        C336   1.402       .  A
C331        C339   1.440       .  S
C332        C333   1.400       .  A
C332        H341   1.083       .  S
C333        C334   1.402       .  A
C333        H342   1.083       .  S
C334        C335   1.402       .  A
C334        C337   1.442       .  S
C335        C336   1.399       .  A
C335        H343   1.083       .  S
C336        H344   1.084       .  S
C337        C338   1.207       .  T
C339        C340   1.207       .  T
C345        C346   1.402       .  A
C345        C350   1.401       .  A
C345        C353   1.441       .  S
C346        C347   1.400   1_565  A
C346        H355   1.083       .  S
C347        C348   1.402       .  A
C347        H356   1.083       .  S
C348        C349   1.401   1_545  A
C348        C351   1.440       .  S
C349        C350   1.399       .  A
C349        H357   1.083       .  S
C350        H358   1.083       .  S
C351        C352   1.207       .  T
C353        C354   1.206       .  T
C359        C360   1.402       .  A
C359        C364   1.401       .  A
C359        C367   1.440       .  S
C360        C361   1.400       .  A
C360        H369   1.083       .  S
C361        C362   1.402       .  A
C361        H370   1.083       .  S
C362        C363   1.401       .  A
C362        C365   1.440       .  S
C363        C364   1.398       .  A
C363        H371   1.084       .  S
C364        H372   1.083       .  S
C365        C366   1.207       .  T
C367        C368   1.207   1_556  T
C373        C374   1.402       .  A
C373        C378   1.401       .  A
C373        C381   1.440       .  S
C374        C375   1.399       .  A
C374        H383   1.083       .  S
C375        C376   1.401       .  A
C375        H384   1.083       .  S
C376        C377   1.401       .  A
C376        C379   1.439       .  S
C377        C378   1.399       .  A
C377        H385   1.083       .  S
C378        H386   1.083       .  S
C379        C380   1.206       .  T
C381        C382   1.207       .  T
C387        C388   1.401       .  A
C387        C392   1.401   1_565  A
C387        C395   1.439   1_565  S
C388        C389   1.399       .  A
C388        H397   1.083       .  S
C389        C390   1.401       .  A
C389        H398   1.083       .  S
C390        C391   1.401       .  A
C390        C393   1.440       .  S
C391        C392   1.399   1_565  A
C391        H399   1.083       .  S
C392        H400   1.083       .  S
C393        C394   1.206       .  T
C395        C396   1.207       .  T
C401        C402   1.402       .  A
C401        C406   1.401       .  A
C401        C409   1.440       .  S
C402        C403   1.401       .  A
C402        H411   1.083       .  S
C403        C404   1.402       .  A
C403        H412   1.083       .  S
C404        C405   1.401       .  A
C404        C407   1.440       .  S
C405        C406   1.398       .  A
C405        H413   1.084       .  S
C406        H414   1.084       .  S
C407        C408   1.207       .  T
C409        C410   1.207       .  T
C415        C416   1.401       .  A
C415        C420   1.401       .  A
C415        C423   1.438       .  S
C416        C417   1.398       .  A
C416        H425   1.084       .  S
C417        C418   1.401       .  A
C417        H426   1.083       .  S
C418        C419   1.401       .  A
C418        C421   1.438       .  S
C419        C420   1.399       .  A
C419        H427   1.083       .  S
C420        H428   1.083       .  S
C421        C422   1.205       .  T
C423        C424   1.206       .  T
C429        C430   1.402       .  A
C429        C434   1.401       .  A
C429        C437   1.439       .  S
C430        C431   1.400       .  A
C430        H439   1.083       .  S
C431        C432   1.401       .  A
C431        H440   1.083       .  S
C432        C433   1.401       .  A
C432        C435   1.439       .  S
C433        C434   1.398       .  A
C433        H441   1.084       .  S
C434        H442   1.084       .  S
C435        C436   1.206       .  T
C437        C438   1.207   1_556  T
C443        C444   1.401       .  A
C443        C448   1.402       .  A
C443        C451   1.441       .  S
C444        C445   1.399       .  A
C444        H453   1.083       .  S
C445        C446   1.401       .  A
C445        H454   1.083       .  S
C446        C447   1.402       .  A
C446        C449   1.441       .  S
C447        C448   1.400       .  A
C447        H455   1.083       .  S
C448        H456   1.083       .  S
C449        C450   1.207       .  T
C451        C452   1.207       .  T
C457        C458   1.401       .  A
C457        C462   1.402       .  A
C457        C465   1.440       .  S
C458        C459   1.399   1_655  A
C458        H467   1.083       .  S
C459        C460   1.401   1_455  A
C459        H468   1.084       .  S
C460        C461   1.401       .  A
C460        C463   1.440   1_655  S
C461        C462   1.400       .  A
C461        H469   1.083       .  S
C462        H470   1.083       .  S
C463        C464   1.207       .  T
C465        C466   1.206       .  T
C471        C472   1.402       .  A
C471        C476   1.400       .  A
C471        C479   1.438       .  S
C472        C473   1.400       .  A
C472        H481   1.083       .  S
C473        C474   1.401       .  A
C473        H482   1.083       .  S
C474        C475   1.401       .  A
C474        C477   1.439       .  S
C475        C476   1.397       .  A
C475        H483   1.084       .  S
C476        H484   1.084       .  S
C477        C478   1.206       .  T
C479        C480   1.205       .  T
C485        C486   1.401       .  A
C485        C490   1.402       .  A
C485        C493   1.440       .  S
C486        C487   1.398       .  A
C486        H495   1.084       .  S
C487        C488   1.401       .  A
C487        H496   1.084       .  S
C488        C489   1.402       .  A
C488        C491   1.440       .  S
C489        C490   1.401       .  A
C489        H497   1.083       .  S
C490        H498   1.083       .  S
C491        C492   1.207       .  T
C493        C494   1.206       .  T
C499        C500   1.402       .  A
C499        C504   1.401       .  A
C499        C507   1.440   1_565  S
C500        C501   1.399       .  A
C500        H509   1.083   1_565  S
C501        C502   1.401       .  A
C501        H510   1.083       .  S
C502        C503   1.402       .  A
C502        C505   1.441       .  S
C503        C504   1.400       .  A
C503        H511   1.083       .  S
C504        H512   1.083       .  S
C505        C506   1.207       .  T
C507        C508   1.207       .  T
C513        C514   1.401       .  A
C513        C518   1.402       .  A
C513        C521   1.440       .  S
C514        C515   1.398       .  A
C514        H523   1.083       .  S
C515        C516   1.401       .  A
C515        H524   1.084       .  S
C516        C517   1.401       .  A
C516        C519   1.439   1_554  S
C517        C518   1.400       .  A
C517        H525   1.083   1_554  S
C518        H526   1.083       .  S
C519        C520   1.206       .  T
C521        C522   1.206       .  T
C527        C528   1.401       .  A
C527        C532   1.402       .  A
C527        C535   1.441       .  S
C528        C529   1.399       .  A
C528        H537   1.083       .  S
C529        C530   1.401       .  A
C529        H538   1.083       .  S
C530        C531   1.401       .  A
C530        C533   1.439       .  S
C531        C532   1.399       .  A
C531        H539   1.083       .  S
C532        H540   1.083       .  S
C533        C534   1.207       .  T
C535        C536   1.206       .  T
C541        C542   1.401       .  A
C541        C546   1.401       .  A
C541        C549   1.440       .  S
C542        C543   1.400       .  A
C542        H551   1.083       .  S
C543        C544   1.402       .  A
C543        H552   1.083       .  S
C544        C545   1.401       .  A
C544        C547   1.441       .  S
C545        C546   1.399       .  A
C545        H553   1.083       .  S
C546        H554   1.084       .  S
C547        C548   1.206       .  T
C549        C550   1.207       .  T
C555        C556   1.401       .  A
C555        C560   1.401       .  A
C555        C563   1.438       .  S
C556        C557   1.398       .  A
C556        H565   1.084       .  S
C557        C558   1.401       .  A
C557        H566   1.084       .  S
C558        C559   1.401       .  A
C558        C561   1.439       .  S
C559        C560   1.399       .  A
C559        H567   1.083       .  S
C560        H568   1.083       .  S
C561        C562   1.206   1_455  T
C563        C564   1.206       .  T
C569        C570   1.401       .  A
C569        C574   1.402       .  A
C569        C577   1.442       .  S
C570        C571   1.399       .  A
C570        H579   1.083       .  S
C571        C572   1.401       .  A
C571        H580   1.084   1_554  S
C572        C573   1.402       .  A
C572        C575   1.440   1_554  S
C573        C574   1.401       .  A
C573        H581   1.083       .  S
C574        H582   1.083       .  S
C575        C576   1.207       .  T
C577        C578   1.207       .  T
C583        C584   1.401       .  A
C583        C588   1.401       .  A
C583        C591   1.439       .  S
C584        C585   1.398       .  A
C584        H593   1.083       .  S
C585        C586   1.401       .  A
C585        H594   1.084       .  S
C586        C587   1.401       .  A
C586        C589   1.438       .  S
C587        C588   1.399       .  A
C587        H595   1.083       .  S
C588        H596   1.083       .  S
C589        C590   1.206       .  T
C591        C592   1.205       .  T
C597        C598   1.401       .  A
C597        C602   1.401       .  A
C597        C605   1.439       .  S
C598        C599   1.398       .  A
C598        H607   1.083       .  S
C599        C600   1.401       .  A
C599        H608   1.083       .  S
C600        C601   1.402       .  A
C600        C603   1.439       .  S
C601        C602   1.399       .  A
C601        H609   1.083       .  S
C602        H610   1.083       .  S
C603        C604   1.206       .  T
C605        C606   1.206       .  T
C611        C612   1.401       .  A
C611        C616   1.401       .  A
C611        C619   1.437       .  S
C612        C613   1.398       .  A
C612        H621   1.084       .  S
C613        C614   1.401       .  A
C613        H622   1.084       .  S
C614        C615   1.401       .  A
C614        C617   1.438   1_554  S
C615        C616   1.399       .  A
C615        H623   1.083   1_554  S
C616        H624   1.083       .  S
C617        C618   1.206       .  T
C619        C620   1.204       .  T
C625        C626   1.401       .  A
C625        C630   1.401       .  A
C625        C633   1.440       .  S
C626        C627   1.399       .  A
C626        H635   1.083       .  S
C627        C628   1.401       .  A
C627        H636   1.083       .  S
C628        C629   1.401       .  A
C628        C631   1.439       .  S
C629        C630   1.399       .  A
C629        H637   1.083       .  S
C630        H638   1.083       .  S
C631        C632   1.207       .  T
C633        C634   1.206       .  T
C639        C640   1.401       .  A
C639        C644   1.401       .  A
C639        C647   1.438       .  S
C640        C641   1.398       .  A
C640        H649   1.083       .  S
C641        C642   1.401       .  A
C641        H650   1.083       .  S
C642        C643   1.401       .  A
C642        C645   1.438       .  S
C643        C644   1.398       .  A
C643        H651   1.083       .  S
C644        H652   1.084       .  S
C645        C646   1.206   1_455  T
C647        C648   1.205       .  T
C653        C654   1.401       .  A
C653        C658   1.401       .  A
C653        C661   1.439       .  S
C654        C655   1.399       .  A
C654        H663   1.083       .  S
C655        C656   1.401       .  A
C655        H664   1.083       .  S
C656        C657   1.401       .  A
C656        C659   1.439       .  S
C657        C658   1.399       .  A
C657        H665   1.084       .  S
C658        H666   1.084       .  S
C659        C660   1.206       .  T
C661        C662   1.207       .  T
C667        C668   1.401       .  A
C667        C672   1.402       .  A
C667        C675   1.442   1_655  S
C668        C669   1.400       .  A
C668        H677   1.083       .  S
C669        C670   1.402       .  A
C669        H678   1.083       .  S
C670        C671   1.402       .  A
C670        C673   1.443       .  S
C671        C672   1.401       .  A
C671        H679   1.083       .  S
C672        H680   1.083       .  S
C673        C674   1.208       .  T
C675        C676   1.208       .  T
C681        C682   1.402       .  A
C681        C686   1.401       .  A
C681        C689   1.441       .  S
C682        C683   1.400       .  A
C682        H691   1.083       .  S
C683        C684   1.402       .  A
C683        H692   1.083       .  S
C684        C685   1.401   1_565  A
C684        C687   1.441   1_565  S
C685        C686   1.399   1_545  A
C685        H693   1.084       .  S
C686        H694   1.083       .  S
C687        C688   1.207       .  T
C689        C690   1.206       .  T
C695        C696   1.401       .  A
C695        C700   1.401       .  A
C695        C703   1.440   1_554  S
C696        C697   1.399       .  A
C696        H705   1.083       .  S
C697        C698   1.402       .  A
C697        H706   1.083       .  S
C698        C699   1.401       .  A
C698        C701   1.441       .  S
C699        C700   1.399       .  A
C699        H707   1.083       .  S
C700        H708   1.084   1_554  S
C701        C702   1.207       .  T
C703        C704   1.207       .  T
