geometry optimzed in LAMMPS
_audit_creation_date              2020-11-30 
_audit_creation_method            'lammps2cif' 
_symmetry_space_group_name_H-M    'P1' 
_symmetry_Int_Tables_number       1 
_symmetry_cell_setting            triclinic 
loop_ 
_symmetry_equiv_pos_as_xyz 
  x,y,z 
_cell_length_a                    64.64479316421397 
_cell_length_b                    64.49913390907724 
_cell_length_c                    64.43625832449582 
_cell_angle_alpha                 90.00457633704703 
_cell_angle_beta                  90.01248486093499 
_cell_angle_gamma                 89.99912194233782 
loop_ 
_atom_site_label 
_atom_site_type_symbol 
_atom_site_fract_x 
_atom_site_fract_y 
_atom_site_fract_z 
_atom_site_charge 
C1          C  0.01468400  0.26598015  0.99953232     0.03420
C2          C  0.99939354  0.26547244  0.01530832     0.03420
C3          C  0.98410663  0.24967038  0.01528016     0.03420
C4          C  0.98418393  0.23428744  0.99954976     0.03420
C5          C  0.99962380  0.23466896  0.98391547     0.03420
C6          C  0.01487484  0.25049281  0.98391245     0.03420
C7          C  0.01440038  0.98748780  0.27794582     0.03420
C8          C  0.99877938  0.00293917  0.27802346     0.03420
C9          C  0.98339618  0.00300152  0.26228994     0.03420
C10         C  0.98371507  0.98761545  0.24653366     0.03420
C11         C  0.99925526  0.97208649  0.24659413     0.03420
C12         C  0.01464443  0.97208199  0.26225668     0.03420
C13         C  0.50502234  0.50458469  0.49091993     0.03420
C14         C  0.52110451  0.48993240  0.49175795     0.03420
C15         C  0.52105387  0.47460460  0.50727139     0.03420
C16         C  0.50486045  0.47383769  0.52173816     0.03420
C17         C  0.48878416  0.48841105  0.52089686     0.03420
C18         C  0.48902385  0.50392908  0.50563821     0.03420
N19         N  0.59041036  0.36223224  0.49830402    -0.26160
N20         N  0.57230206  0.37072424  0.49401559    -0.34020
C21         C  0.55785201  0.35609979  0.49218430     0.02180
C22         C  0.56679633  0.33688125  0.49484633     0.08210
C23         C  0.58764580  0.34135975  0.49891898    -0.04890
H24         H  0.54165220  0.35963891  0.49019489     0.08880
H25         H  0.59978963  0.33035829  0.50235318     0.10080
Cu26       Cu  0.56474130  0.40140244  0.49300327     0.44170
Cu27       Cu  0.61674211  0.38108049  0.50450869     0.41990
Cu28       Cu  0.59624271  0.43302250  0.51897351     0.43880
N29         N  0.55461362  0.43010636  0.50146854    -0.33540
N30         N  0.56650195  0.44211873  0.51286279    -0.27800
C31         C  0.55638763  0.45978938  0.51712776    -0.03900
C32         C  0.53723522  0.45861778  0.50769099     0.08320
C33         C  0.53649572  0.43959611  0.49798298     0.02110
H34         H  0.56266858  0.47264554  0.52586165     0.09770
H35         H  0.52384996  0.43319787  0.48904714     0.08840
N36         N  0.62694252  0.42559682  0.51595849    -0.34990
N37         N  0.63534096  0.40760928  0.51081981    -0.27170
C38         C  0.65614210  0.41043340  0.50969086    -0.02410
C39         C  0.66072477  0.43116200  0.51435205     0.06200
C40         C  0.64161219  0.44002236  0.51783516     0.04290
H41         H  0.66704686  0.39837549  0.50567883     0.09400
H42         H  0.63818855  0.45616153  0.52068877     0.08230
N43         N  0.37793274  0.57588648  0.50045578    -0.26160
N44         N  0.38506165  0.55740877  0.49506340    -0.34020
C45         C  0.36933563  0.54448283  0.49155173     0.02180
C46         C  0.35110710  0.55490922  0.49482002     0.08210
C47         C  0.35699403  0.57485202  0.50068650    -0.04890
H48         H  0.37114889  0.52824392  0.48776825     0.08880
H49         H  0.34687242  0.58754530  0.50484151     0.10080
Cu50       Cu  0.41498804  0.54728617  0.49484683     0.44170
Cu51       Cu  0.39779426  0.60103068  0.50730350     0.41990
Cu52       Cu  0.45032926  0.58050488  0.51410189     0.43880
N53         N  0.44427257  0.53730333  0.50116362    -0.33540
N54         N  0.45793973  0.55031350  0.50886365    -0.27800
C55         C  0.47593601  0.54045863  0.51177346    -0.03900
C56         C  0.47319049  0.52016666  0.50570591     0.08320
C57         C  0.45297306  0.51852960  0.49908494     0.02110
H58         H  0.48991000  0.54752409  0.51770511     0.09770
H59         H  0.44528164  0.50490328  0.49307766     0.08840
N60         N  0.44272407  0.61114570  0.51519889    -0.34990
N61         N  0.42425367  0.61955536  0.51260301    -0.27170
C62         C  0.42651019  0.64043459  0.51339965    -0.02410
C63         C  0.44735850  0.64497050  0.51683591     0.06200
C64         C  0.45693422  0.62593460  0.51763250     0.04290
H65         H  0.41400595  0.65142407  0.51156282     0.09400
H66         H  0.47330950  0.62287089  0.51909211     0.08230
N67         N  0.37906820  0.48376054  0.58952739    -0.26160
N68         N  0.38699973  0.47305289  0.57392691    -0.34020
C69         C  0.37252366  0.47000812  0.55939354     0.02180
C70         C  0.35441402  0.47980336  0.56532355     0.08210
C71         C  0.35910706  0.48813082  0.58481913    -0.04890
H72         H  0.37564840  0.46208033  0.54499272     0.08880
H73         H  0.34919049  0.49772936  0.59431553     0.10080
Cu74       Cu  0.41799283  0.46889424  0.56756998     0.44170
Cu75       Cu  0.39711737  0.49326694  0.61532085     0.41990
Cu76       Cu  0.44679428  0.50523347  0.59421628     0.43880
N77         N  0.44563836  0.47994841  0.55599303    -0.33540
N78         N  0.45567181  0.49490790  0.56564582    -0.27800
C79         C  0.47231334  0.50038705  0.55453245    -0.03900
C80         C  0.47261366  0.48831922  0.53692402     0.08320
C81         C  0.45557328  0.47544365  0.53822610     0.02110
H82         H  0.48356243  0.51191027  0.55915104     0.09770
H83         H  0.45074490  0.46383448  0.52712880     0.08840
N84         N  0.44087502  0.50501414  0.62533910    -0.34990
N85         N  0.42303306  0.50041862  0.63413229    -0.27170
C86         C  0.42610162  0.49962476  0.65494293    -0.02410
C87         C  0.44697683  0.50383263  0.65917757     0.06200
C88         C  0.45558226  0.50688147  0.63976656     0.04290
H89         H  0.41415949  0.49575681  0.66601872     0.09400
H90         H  0.47169676  0.50891670  0.63592639     0.08230
N91         N  0.58915986  0.48762036  0.37716162    -0.26160
N92         N  0.57051852  0.48793320  0.38555974    -0.34020
C93         C  0.55607658  0.48704821  0.37090641     0.02180
C94         C  0.56548528  0.48537658  0.35186045     0.08210
C95         C  0.58668858  0.48610704  0.35628730    -0.04890
H96         H  0.53971870  0.48784171  0.37422595     0.08880
H97         H  0.59928079  0.48534591  0.34526967     0.10080
Cu98       Cu  0.56237061  0.48816875  0.41590898     0.44170
Cu99       Cu  0.61595513  0.48984473  0.39604273     0.41990
Cu100      Cu  0.59785433  0.49340221  0.45155291     0.43880
N101        N  0.55356330  0.48913027  0.44605591    -0.33540
N102        N  0.56766056  0.49193480  0.46043583    -0.27800
C103        C  0.55849024  0.49285309  0.47906786    -0.03900
C104        C  0.53749508  0.49021116  0.47596200     0.08320
C105        C  0.53486101  0.48786835  0.45485128     0.02110
H106        H  0.56645104  0.49535946  0.49359815     0.09770
H107        H  0.52053825  0.48542298  0.44653531     0.08840
N108        N  0.62776035  0.49390086  0.44155343    -0.34990
N109        N  0.63530535  0.49309846  0.42246332    -0.27170
C110        C  0.65617976  0.49494357  0.42384555    -0.02410
C111        C  0.66151341  0.49718340  0.44473384     0.06200
C112        C  0.64305892  0.49604780  0.45521062     0.04290
H113        H  0.66658853  0.49507863  0.41070711     0.09400
H114        H  0.64069922  0.49667824  0.47181068     0.08230
N115        N  0.49997240  0.57440657  0.37845410    -0.26160
N116        N  0.49353059  0.55653309  0.38620476    -0.34020
C117        C  0.49058826  0.54290041  0.37084783     0.02180
C118        C  0.49511600  0.55226429  0.35213843     0.08210
C119        C  0.50120504  0.57233441  0.35754432    -0.04890
H120        H  0.48644407  0.52686024  0.37337949     0.08880
H121        H  0.50632730  0.58442175  0.34711075     0.10080
Cu122      Cu  0.49143282  0.54837660  0.41701101     0.44170
Cu123      Cu  0.50770189  0.59989792  0.39772583     0.41990
Cu124      Cu  0.52077161  0.57864589  0.44877005     0.43880
N125        N  0.49927329  0.53849114  0.44630604    -0.33540
N126        N  0.51187801  0.54959600  0.45790300    -0.27800
C127        C  0.51587067  0.53936252  0.47558984    -0.03900
C128        C  0.50513069  0.52090314  0.47494526     0.08320
C129        C  0.49468363  0.52077953  0.45624646     0.02110
H130        H  0.52558437  0.54502412  0.48802342     0.09770
H131        H  0.48491135  0.50859974  0.45016652     0.08840
N132        N  0.51961395  0.60964842  0.44199091    -0.34990
N133        N  0.51468736  0.61828776  0.42406517    -0.27170
C134        C  0.51386730  0.63910004  0.42698220    -0.02410
C135        C  0.51845877  0.64349094  0.44776689     0.06200
C136        C  0.52171308  0.62422940  0.45654595     0.04290
H137        H  0.50990162  0.65010976  0.41497635     0.09400
H138        H  0.52425317  0.62065130  0.47271665     0.08230
N139        N  0.50153681  0.36084140  0.59124951    -0.26160
N140        N  0.49736481  0.36902928  0.57290893    -0.34020
C141        C  0.49532461  0.35414858  0.55873546     0.02180
C142        C  0.49782496  0.33518396  0.56815229     0.08210
C143        C  0.50203660  0.33992494  0.58891180    -0.04890
H144        H  0.49286433  0.35719618  0.54242447     0.08880
H145        H  0.50518534  0.32905373  0.60129347     0.10080
Cu146      Cu  0.49573509  0.39948117  0.56479715     0.44170
Cu147      Cu  0.50691642  0.37996248  0.61746804     0.41990
Cu148      Cu  0.51720092  0.43316648  0.59726742     0.43880
N149        N  0.50122790  0.42898451  0.55509891    -0.33540
N150        N  0.51031647  0.44217830  0.56770088    -0.27800
C151        C  0.51290169  0.46034990  0.55793213    -0.03900
C152        C  0.50507249  0.45812921  0.53814532     0.08320
C153        C  0.49781292  0.43810321  0.53672860     0.02110
H154        H  0.51988986  0.47401779  0.56466457     0.09770
H155        H  0.49079703  0.43070768  0.52340711     0.08840
N156        N  0.51636102  0.42485384  0.62783646    -0.34990
N157        N  0.51229371  0.40652142  0.63611494    -0.27170
C158        C  0.51187506  0.40889462  0.65704059    -0.02410
C159        C  0.51605676  0.42962714  0.66172915     0.06200
C160        C  0.51851068  0.43902291  0.64273494     0.04290
H161        H  0.50876614  0.39654967  0.66796101     0.09400
H162        H  0.52092981  0.45533374  0.63971580     0.08230
C163        C  0.02715285  0.25334147  0.51092337     0.03420
C164        C  0.02692857  0.23716362  0.49599327     0.03420
C165        C  0.01141419  0.22164163  0.49690163     0.03420
C166        C  0.99636893  0.22203583  0.51292891     0.03420
C167        C  0.99683660  0.23794319  0.52811399     0.03420
C168        C  0.01192352  0.25394150  0.52681304     0.03420
C169        C  0.98564121  0.99258817  0.52155438     0.03420
C170        C  0.00139949  0.97764440  0.52175356     0.03420
C171        C  0.01743934  0.97852893  0.50712062     0.03420
C172        C  0.01754265  0.99418117  0.49198128     0.03420
C173        C  0.00178596  0.00914628  0.49174278     0.03420
C174        C  0.98603201  0.00852777  0.50672461     0.03420
N175        N  0.08697356  0.98797098  0.37838844    -0.26160
N176        N  0.06824211  0.98566176  0.38631218    -0.34020
C177        C  0.05436542  0.98360249  0.37117575     0.02180
C178        C  0.06435813  0.98416330  0.35234498     0.08210
C179        C  0.08517871  0.98720914  0.35741715    -0.04890
H180        H  0.03791234  0.98253148  0.37393359     0.08880
H181        H  0.09798151  0.98877295  0.34673236     0.10080
Cu182      Cu  0.05926213  0.98615277  0.41659581     0.44170
Cu183      Cu  0.11317460  0.99274975  0.39762765     0.41990
Cu184      Cu  0.09388495  0.00018548  0.45164920     0.43880
N185        N  0.05006883  0.99094499  0.44642007    -0.33540
N186        N  0.06369612  0.99706983  0.46025227    -0.27800
C187        C  0.05433351  0.99949618  0.47865727    -0.03900
C188        C  0.03373473  0.99451938  0.47601051     0.08320
C189        C  0.03146049  0.98919144  0.45540798     0.02110
H190        H  0.06194026  0.00428695  0.49280944     0.09770
H191        H  0.01747456  0.98426998  0.44762363     0.08840
N192        N  0.12418771  0.99986363  0.44281276    -0.34990
N193        N  0.13217184  0.99750343  0.42405452    -0.27170
C194        C  0.15306790  0.99844421  0.42590814    -0.02410
C195        C  0.15803254  0.00168136  0.44678088     0.06200
C196        C  0.13923173  0.00210314  0.45676188     0.04290
H197        H  0.16377200  0.99705380  0.41308864     0.09400
H198        H  0.13643946  0.00349542  0.47324179     0.08230
N199        N  0.99937220  0.07719916  0.37783333    -0.26160
N200        N  0.99375500  0.05928813  0.38609009    -0.34020
C201        C  0.99145672  0.04509296  0.37121187     0.02180
C202        C  0.99527745  0.05409624  0.35218220     0.08210
C203        C  0.00048004  0.07460157  0.35696750    -0.04890
H204        H  0.98818004  0.02898043  0.37440300     0.08880
H205        H  0.00490815  0.08664003  0.34617297     0.10080
Cu206      Cu  0.99108171  0.05168048  0.41685143     0.44170
Cu207      Cu  0.00640564  0.10328080  0.39654532     0.41990
Cu208      Cu  0.01785501  0.08259290  0.44872961     0.43880
N209        N  0.99729323  0.04223359  0.44653994    -0.33540
N210        N  0.00884311  0.05391861  0.45861713    -0.27800
C211        C  0.01200277  0.04420180  0.47674629    -0.03900
C212        C  0.00181781  0.02544356  0.47582444     0.08320
C213        C  0.99265608  0.02456211  0.45649533     0.02110
H214        H  0.02098927  0.05028511  0.48952826     0.09770
H215        H  0.98380074  0.01189871  0.45000617     0.08840
N216        N  0.01723516  0.11330496  0.44105707    -0.34990
N217        N  0.01298146  0.12180070  0.42288767    -0.27170
C218        C  0.01244762  0.14265562  0.42556304    -0.02410
C219        C  0.01649876  0.14716829  0.44643899     0.06200
C220        C  0.01912379  0.12797600  0.45549861     0.04290
H221        H  0.00899833  0.15359642  0.41334069     0.09400
H222        H  0.02102822  0.12448053  0.47177306     0.08230
N223        N  0.08712460  0.86598483  0.49829631    -0.26160
N224        N  0.06871270  0.87418263  0.49481092    -0.34020
C225        C  0.05455652  0.85928602  0.49296962     0.02180
C226        C  0.06404036  0.84023680  0.49479300     0.08210
C227        C  0.08487493  0.84506535  0.49837042    -0.04890
H228        H  0.03823215  0.86249005  0.49151180     0.08880
H229        H  0.09737732  0.83426997  0.50109460     0.10080
Cu230      Cu  0.06046795  0.90467050  0.49447310     0.44170
Cu231      Cu  0.11327074  0.88498992  0.50423751     0.41990
Cu232      Cu  0.09315524  0.93763314  0.51685180     0.43880
N233        N  0.05070189  0.93378007  0.50179059    -0.33540
N234        N  0.06328606  0.94653891  0.51148084    -0.27800
C235        C  0.05345376  0.96448151  0.51516458    -0.03900
C236        C  0.03369477  0.96264972  0.50724514     0.08320
C237        C  0.03234602  0.94301083  0.49893825     0.02110
H238        H  0.06022855  0.97784324  0.52267760     0.09770
H239        H  0.01913138  0.93601614  0.49138591     0.08840
N240        N  0.12371007  0.92957512  0.51498121    -0.34990
N241        N  0.13194606  0.91132597  0.51055200    -0.27170
C242        C  0.15281070  0.91368435  0.51024915    -0.02410
C243        C  0.15757573  0.93437083  0.51474674     0.06200
C244        C  0.13857341  0.94372049  0.51726355     0.04290
H245        H  0.16363506  0.90133404  0.50696050     0.09400
H246        H  0.13543098  0.95997518  0.51979957     0.08230
N247        N  0.87399518  0.07954564  0.50507999    -0.26160
N248        N  0.88139039  0.06085915  0.50095464    -0.34020
C249        C  0.86592243  0.04742919  0.49842370     0.02180
C250        C  0.84747402  0.05768919  0.50083777     0.08210
C251        C  0.85302282  0.07814638  0.50530341    -0.04890
H252        H  0.86806897  0.03108813  0.49531798     0.08880
H253        H  0.84264704  0.09098946  0.50816719     0.10080
Cu254      Cu  0.91147061  0.05150013  0.49976674     0.44170
Cu255      Cu  0.89410786  0.10519552  0.50995607     0.41990
Cu256      Cu  0.94703692  0.08477744  0.51802643     0.43880
N257        N  0.94109726  0.04181925  0.50440234    -0.33540
N258        N  0.95495027  0.05480285  0.51179574    -0.27800
C259        C  0.97315889  0.04506003  0.51365850    -0.03900
C260        C  0.97032436  0.02487849  0.50721885     0.08320
C261        C  0.94984963  0.02319379  0.50150311     0.02110
H262        H  0.98727954  0.05207799  0.51929054     0.09770
H263        H  0.94196519  0.00958634  0.49570864     0.08840
N264        N  0.93925491  0.11543939  0.51822202    -0.34990
N265        N  0.92089627  0.12379001  0.51464143    -0.27170
C266        C  0.92335669  0.14468184  0.51427808    -0.02410
C267        C  0.94415293  0.14927968  0.51807096     0.06200
C268        C  0.95350990  0.13027297  0.52030771     0.04290
H269        H  0.91103747  0.15565936  0.51140230     0.09400
H270        H  0.96983040  0.12725331  0.52240017     0.08230
N271        N  0.87636991  0.98491997  0.59090022    -0.26160
N272        N  0.88446786  0.97464126  0.57511475    -0.34020
C273        C  0.86996839  0.97133231  0.56067622     0.02180
C274        C  0.85161527  0.98055839  0.56683320     0.08210
C275        C  0.85626041  0.98880241  0.58639477    -0.04890
H276        H  0.87326260  0.96358673  0.54622815     0.08880
H277        H  0.84618180  0.99799366  0.59611354     0.10080
Cu278      Cu  0.91552031  0.97154904  0.56848972     0.44170
Cu279      Cu  0.89445969  0.99430775  0.61668203     0.41990
Cu280      Cu  0.94411437  0.00767962  0.59564215     0.43880
N281        N  0.94286552  0.98327370  0.55687077    -0.33540
N282        N  0.95285037  0.99813798  0.56672037    -0.27800
C283        C  0.96933460  0.00398683  0.55553801    -0.03900
C284        C  0.96956352  0.99225439  0.53768688     0.08320
C285        C  0.95265946  0.97920241  0.53892939     0.02110
H286        H  0.98055910  0.01547512  0.56028994     0.09770
H287        H  0.94785861  0.96771094  0.52769429     0.08840
N288        N  0.93814137  0.00656433  0.62676795    -0.34990
N289        N  0.92040666  0.00135607  0.63547034    -0.27170
C290        C  0.92351657  0.00009306  0.65625206    -0.02410
C291        C  0.94426270  0.00472047  0.66054284     0.06200
C292        C  0.95280090  0.00846128  0.64124680     0.04290
H293        H  0.91170776  0.99570403  0.66728245     0.09400
H294        H  0.96888229  0.01107908  0.63756178     0.08230
N295        N  0.99950500  0.86411935  0.59010675    -0.26160
N296        N  0.99430158  0.87221084  0.57198364    -0.34020
C297        C  0.99207419  0.85723568  0.55790333     0.02180
C298        C  0.99562621  0.83836196  0.56721309     0.08210
C299        C  0.00054425  0.84325245  0.58775168    -0.04890
H300        H  0.98892803  0.86017267  0.54169233     0.08880
H301        H  0.00464523  0.83251848  0.59997326     0.10080
Cu302      Cu  0.99208704  0.90276019  0.56404132     0.44170
Cu303      Cu  0.00571859  0.88303197  0.61618096     0.41990
Cu304      Cu  0.01560602  0.93598288  0.59626861     0.43880
N305        N  0.99779137  0.93240617  0.55466219    -0.33540
N306        N  0.00768037  0.94523154  0.56705538    -0.27800
C307        C  0.01033270  0.96345756  0.55741863    -0.03900
C308        C  0.00170331  0.96170178  0.53793590     0.08320
C309        C  0.99389983  0.94187053  0.53655267     0.02110
H310        H  0.01793334  0.97684921  0.56403333     0.09770
H311        H  0.98624886  0.93481593  0.52339790     0.08840
N312        N  0.01541540  0.92765596  0.62682683    -0.34990
N313        N  0.01153675  0.90925207  0.63499676    -0.27170
C314        C  0.01128887  0.91142387  0.65592606    -0.02410
C315        C  0.01530909  0.93214941  0.66077487     0.06200
C316        C  0.01754301  0.94173053  0.64181947     0.04290
H317        H  0.00824985  0.89895861  0.66672656     0.09400
H318        H  0.01958640  0.95809652  0.63885895     0.08230
C319        C  0.23174381  0.98512113  0.51290674     0.03420
C320        C  0.23177292  0.00093384  0.49759032     0.03420
C321        C  0.24732387  0.01645244  0.49779798     0.03420
C322        C  0.26277972  0.01622413  0.51340569     0.03420
C323        C  0.26279233  0.00041836  0.52869774     0.03420
C324        C  0.24739682  0.98474812  0.52835443     0.03420
C325        C  0.00544863  0.50835131  0.99050525     0.03420
C326        C  0.99036578  0.50799120  0.00612982     0.03420
C327        C  0.99109647  0.49275174  0.02163274     0.03420
C328        C  0.00686291  0.47783255  0.02147963     0.03420
C329        C  0.02200096  0.47822145  0.00593922     0.03420
C330        C  0.02129040  0.49350056  0.99047429     0.03420
N331        N  0.13456429  0.40949869  0.01190122    -0.26160
N332        N  0.12639389  0.42723850  0.01814519    -0.34020
C333        C  0.14128971  0.44127593  0.02106892     0.02180
C334        C  0.16021517  0.43235558  0.01686763     0.08210
C335        C  0.15537404  0.41206844  0.01090034    -0.04890
H336        H  0.13822168  0.45730636  0.02484969     0.08880
H337        H  0.16609812  0.40019883  0.00592992     0.10080
Cu338      Cu  0.09570349  0.43497727  0.01989037     0.44170
Cu339      Cu  0.11576053  0.38373678  0.00386277     0.41990
Cu340      Cu  0.06514277  0.40511905  0.98957144     0.43880
N341        N  0.06687149  0.44503304  0.01143601    -0.33540
N342        N  0.05555369  0.43392323  0.99859374    -0.27800
C343        C  0.03781735  0.44394693  0.99461463    -0.03900
C344        C  0.03823033  0.46231131  0.00553934     0.08320
C345        C  0.05680512  0.46262996  0.01607544     0.02110
H346        H  0.02549760  0.43818624  0.98483094     0.09770
H347        H  0.06260970  0.47473159  0.02612687     0.08840
N348        N  0.07174583  0.37416217  0.99126449    -0.34990
N349        N  0.08945974  0.36543853  0.99656748    -0.27170
C350        C  0.08626853  0.34468865  0.99780141    -0.02410
C351        C  0.06548985  0.34041634  0.99318494     0.06200
C352        C  0.05705566  0.35974610  0.98942452     0.04290
H353        H  0.09808764  0.33368642  0.00220152     0.09400
H354        H  0.04103306  0.36362572  0.98686298     0.08230
N355        N  0.01387130  0.40949283  0.13503732    -0.26160
N356        N  0.01762510  0.42781869  0.12666114    -0.34020
C357        C  0.01931930  0.44215833  0.14142253     0.02180
C358        C  0.01707459  0.43287104  0.16051860     0.08210
C359        C  0.01339703  0.41199128  0.15593442    -0.04890
H360        H  0.02109352  0.45848237  0.13812145     0.08880
H361        H  0.01042715  0.39963707  0.16687784     0.10080
Cu362      Cu  0.01870376  0.43581032  0.09612189     0.44170
Cu363      Cu  0.00836671  0.38306165  0.11637005     0.41990
Cu364      Cu  0.99737845  0.40259373  0.06316518     0.43880
N365        N  0.01236518  0.44512062  0.06663352    -0.33540
N366        N  0.00341141  0.43214139  0.05371912    -0.27800
C367        C  0.00015613  0.44163199  0.03550350    -0.03900
C368        C  0.00736861  0.46165563  0.03740252     0.08320
C369        C  0.01499747  0.46349008  0.05728293     0.02110
H370        H  0.99309855  0.43456046  0.02203119     0.09770
H371        H  0.02175535  0.47707410  0.06441561     0.08840
N372        N  0.99809723  0.37218888  0.07183471    -0.34990
N373        N  0.00231494  0.36412158  0.09023475    -0.27170
C374        C  0.00234333  0.34318656  0.08818308    -0.02410
C375        C  0.99775535  0.33827937  0.06757529     0.06200
C376        C  0.99548521  0.35714806  0.05791285     0.04290
H377        H  0.00546566  0.33241415  0.10065859     0.09400
H378        H  0.99286600  0.35997691  0.04158435     0.08230
N379        N  0.92290708  0.49869466  0.13509014    -0.26160
N380        N  0.94081988  0.50425412  0.12686566    -0.34020
C381        C  0.95483907  0.50706140  0.14179335     0.02180
C382        C  0.94574260  0.50354243  0.16079893     0.08210
C383        C  0.92535803  0.49806660  0.15598900    -0.04890
H384        H  0.97093881  0.51030735  0.13869106     0.08880
H385        H  0.91333115  0.49368098  0.16679054     0.10080
Cu386      Cu  0.94894363  0.50558810  0.09623128     0.44170
Cu387      Cu  0.89698366  0.49100585  0.11640847     0.41990
Cu388      Cu  0.91815102  0.47790755  0.06517483     0.43880
N389        N  0.95874299  0.49777728  0.06712603    -0.33540
N390        N  0.94694817  0.48606502  0.05532382    -0.27800
C391        C  0.95653734  0.48244125  0.03724721    -0.03900
C392        C  0.97537658  0.49238653  0.03799027     0.08320
C393        C  0.97643653  0.50195909  0.05709805     0.02110
H394        H  0.95020526  0.47352381  0.02453233     0.09770
H395        H  0.98903792  0.51112714  0.06323356     0.08840
N396        N  0.88743768  0.47930143  0.07211393    -0.34990
N397        N  0.87868021  0.48397207  0.09001165    -0.27170
C398        C  0.85795083  0.48482238  0.08684579    -0.02410
C399        C  0.85375252  0.48066172  0.06585904     0.06200
C400        C  0.87313213  0.47758490  0.05734155     0.04290
H401        H  0.84694624  0.48871450  0.09883699     0.09400
H402        H  0.87724036  0.47554800  0.04128140     0.08230
N403        N  0.13523888  0.49712149  0.92190628    -0.26160
N404        N  0.12689724  0.49931541  0.94051380    -0.34020
C405        C  0.14156783  0.50107953  0.95486434     0.02180
C406        C  0.16062200  0.50072115  0.94541715     0.08210
C407        C  0.15611517  0.49786769  0.92432250    -0.04890
H408        H  0.13823548  0.50196820  0.97126307     0.08880
H409        H  0.16711264  0.49650290  0.91175288     0.10080
Cu410      Cu  0.09669708  0.50002978  0.94910866     0.44170
Cu411      Cu  0.11639681  0.49242604  0.89518849     0.41990
Cu412      Cu  0.06294817  0.48433953  0.91540337     0.43880
N413        N  0.06690968  0.49654854  0.95838904    -0.33540
N414        N  0.05333384  0.48982157  0.94482487    -0.27800
C415        C  0.03479213  0.48804404  0.95390675    -0.03900
C416        C  0.03715863  0.49394572  0.97432149     0.08320
C417        C  0.05768256  0.49920224  0.97679997     0.02110
H418        H  0.02085536  0.48264143  0.94635765     0.09770
H419        H  0.06532612  0.50424681  0.99085160     0.08840
N420        N  0.07128795  0.48461238  0.88508947    -0.34990
N421        N  0.08966379  0.48737481  0.87652428    -0.27170
C422        C  0.08695900  0.48708070  0.85560836    -0.02410
C423        C  0.06591481  0.48394696  0.85131603     0.06200
C424        C  0.05680936  0.48287959  0.87054957     0.04290
H425        H  0.09927665  0.48912933  0.84444642     0.09400
H426        H  0.04052286  0.48186185  0.87412519     0.08230
N427        N  0.01081698  0.62178461  0.92224898    -0.26160
N428        N  0.01583725  0.61348151  0.94031344    -0.34020
C429        C  0.01829022  0.62831674  0.95451732     0.02180
C430        C  0.01516727  0.64738107  0.94536462     0.08210
C431        C  0.01021832  0.64267174  0.92474830    -0.04890
H432        H  0.02115500  0.62511761  0.97072465     0.08880
H433        H  0.00629375  0.65353442  0.91259065     0.10080
Cu434      Cu  0.01718562  0.58273629  0.94785994     0.44170
Cu435      Cu  0.00389059  0.60281156  0.89630472     0.41990
Cu436      Cu  0.98961411  0.55094750  0.91661060     0.43880
N437        N  0.00981694  0.55344775  0.95737846    -0.33540
N438        N  0.99817427  0.54144623  0.94568646    -0.27800
C439        C  0.99478252  0.52344956  0.95556295    -0.03900
C440        C  0.00484444  0.52444588  0.97441480     0.08320
C441        C  0.01422848  0.54361908  0.97517811     0.02110
H442        H  0.98591904  0.51061530  0.94942701     0.09770
H443        H  0.02334430  0.54999100  0.98772172     0.08840
N444        N  0.99079433  0.55881384  0.88582969    -0.34990
N445        N  0.99660970  0.57671531  0.87766183    -0.27170
C446        C  0.99767554  0.57422200  0.85679807    -0.02410
C447        C  0.99212950  0.55385610  0.85192069     0.06200
C448        C  0.98807079  0.54477383  0.87083020     0.04290
H449        H  0.00240252  0.58619778  0.84605537     0.09400
H450        H  0.98453258  0.52865351  0.87375622     0.08230
N451        N  0.92298083  0.62205004  0.01463729    -0.26160
N452        N  0.94152936  0.61374864  0.01701381    -0.34020
C453        C  0.95580243  0.62857245  0.01855014     0.02180
C454        C  0.94626877  0.64761460  0.01752380     0.08210
C455        C  0.92529355  0.64296678  0.01479835    -0.04890
H456        H  0.97219521  0.62544477  0.01950809     0.08880
H457        H  0.91274240  0.65390631  0.01299318     0.10080
Cu458      Cu  0.94950861  0.58323167  0.01673473     0.44170
Cu459      Cu  0.89642769  0.60314269  0.01036219     0.41990
Cu460      Cu  0.91477457  0.54945102  0.99893953     0.43880
N461        N  0.95813504  0.55346298  0.01094325    -0.33540
N462        N  0.94460848  0.54017553  0.00350641    -0.27800
C463        C  0.95382275  0.52175677  0.00068028    -0.03900
C464        C  0.97421827  0.52391644  0.00659707     0.08320
C465        C  0.97654113  0.54415615  0.01300302     0.02110
H466        H  0.94630530  0.50796760  0.99482596     0.09770
H467        H  0.99046979  0.55153688  0.01865436     0.08840
N468        N  0.88458387  0.55865430  0.00041220    -0.34990
N469        N  0.87695997  0.57716610  0.00493741    -0.27170
C470        C  0.85602279  0.57550862  0.00523302    -0.02410
C471        C  0.85067870  0.55508859  0.00040728     0.06200
C472        C  0.86925174  0.54509311  0.99772948     0.04290
H473        H  0.84552588  0.58815937  0.00847729     0.09400
H474        H  0.87161405  0.52880754  0.99449850     0.08230
C475        C  0.02825487  0.48382795  0.24967091     0.03420
C476        C  0.01255552  0.48396421  0.23430851     0.03420
C477        C  0.99716096  0.49959937  0.23446823     0.03420
C478        C  0.99738270  0.51506761  0.25008323     0.03420
C479        C  0.01280476  0.51472893  0.26576423     0.03420
C480        C  0.02838987  0.49920317  0.26542354     0.03420
C481        C  0.24902429  0.48476986  0.02912243     0.03420
C482        C  0.23367633  0.48421419  0.01337894     0.03420
C483        C  0.23377894  0.49937232  0.99740665     0.03420
C484        C  0.24912838  0.51512147  0.99723371     0.03420
C485        C  0.26456034  0.51549837  0.01292692     0.03420
C486        C  0.26454759  0.50032381  0.02886933     0.03420
C487        C  0.50786201  0.00870501  0.98994669     0.03420
C488        C  0.52238476  0.99255907  0.99011223     0.03420
C489        C  0.52117817  0.97689704  0.00521240     0.03420
C490        C  0.50522281  0.97715976  0.01998389     0.03420
C491        C  0.49069174  0.99334063  0.01989470     0.03420
C492        C  0.49200555  0.00908210  0.00484619     0.03420
N493        N  0.37767238  0.07691096  0.99991182    -0.26160
N494        N  0.38610069  0.05825276  0.99922506    -0.34020
C495        C  0.37152989  0.04377857  0.99791315     0.02180
C496        C  0.35247910  0.05317379  0.99705880     0.08210
C497        C  0.35684453  0.07439949  0.99867066    -0.04890
H498        H  0.37491003  0.02737842  0.99810303     0.08880
H499        H  0.34579869  0.08698874  0.99882889     0.10080
Cu500      Cu  0.41631242  0.04992804  0.99951736     0.44170
Cu501      Cu  0.39636690  0.10383014  0.00321340     0.41990
Cu502      Cu  0.45123741  0.08537814  0.00711583     0.43880
N503        N  0.44631514  0.04113976  0.00162835    -0.33540
N504        N  0.46040896  0.05535593  0.00510987    -0.27800
C505        C  0.47900264  0.04635282  0.00678431    -0.03900
C506        C  0.47616380  0.02532059  0.00405868     0.08320
C507        C  0.45526793  0.02245432  0.00083420     0.02110
H508        H  0.49330260  0.05442529  0.01000536     0.09770
H509        H  0.44720744  0.00798097  0.99830221     0.08840
N510        N  0.44165134  0.11533895  0.00813054    -0.34990
N511        N  0.42274684  0.12314740  0.00708634    -0.27170
C512        C  0.42444056  0.14406216  0.00887188    -0.02410
C513        C  0.44534472  0.14910257  0.01133439     0.06200
C514        C  0.45547989  0.13043568  0.01040340     0.04290
H515        H  0.41151948  0.15471293  0.00863334     0.09400
H516        H  0.47198144  0.12778606  0.01097743     0.08230
N517        N  0.37877383  0.98454065  0.08781388    -0.26160
N518        N  0.38680675  0.97812278  0.07009286    -0.34020
C519        C  0.37177618  0.97514419  0.05613925     0.02180
C520        C  0.35299339  0.97976273  0.06519080     0.08210
C521        C  0.35799992  0.98582408  0.08538918    -0.04890
H522        H  0.37457833  0.97123533  0.04006841     0.08880
H523        H  0.34742888  0.99119312  0.09723365     0.10080
Cu524      Cu  0.41767747  0.97760823  0.06304556     0.44170
Cu525      Cu  0.39802886  0.99275013  0.11297383     0.41990
Cu526      Cu  0.44529506  0.01498604  0.09083593     0.43880
N527        N  0.44599066  0.98801909  0.05341688    -0.33540
N528        N  0.45583481  0.00315764  0.06301744    -0.27800
C529        C  0.47341577  0.00735320  0.05271490    -0.03900
C530        C  0.47445895  0.99412297  0.03588731     0.08320
C531        C  0.45684734  0.98213270  0.03669420     0.02110
H532        H  0.48467275  0.01889134  0.05726325     0.09770
H533        H  0.45211420  0.97029011  0.02580256     0.08840
N534        N  0.43951999  0.01233320  0.12220251    -0.34990
N535        N  0.42381422  0.00232700  0.13067752    -0.27170
C536        C  0.42845571  0.99872062  0.15084646    -0.02410
C537        C  0.44804618  0.00687615  0.15518117     0.06200
C538        C  0.45410771  0.01573672  0.13654156     0.04290
H539        H  0.41878364  0.98975612  0.16116996     0.09400
H540        H  0.46852988  0.02330657  0.13296722     0.08230
N541        N  0.50190188  0.07707676  0.87603792    -0.26160
N542        N  0.49744643  0.05887451  0.88434847    -0.34020
C543        C  0.49510039  0.04469014  0.86947272     0.02180
C544        C  0.49767234  0.05397318  0.85037680     0.08210
C545        C  0.50221346  0.07466613  0.85510563    -0.04890
H546        H  0.49260284  0.02843214  0.87265143     0.08880
H547        H  0.50559976  0.08695541  0.84421467     0.10080
Cu548      Cu  0.49639225  0.05110357  0.91511308     0.44170
Cu549      Cu  0.50831621  0.10320609  0.89500195     0.41990
Cu550      Cu  0.52246112  0.08291334  0.94708146     0.43880
N551        N  0.50378885  0.04152692  0.94444279    -0.33540
N552        N  0.51511470  0.05344148  0.95651972    -0.27800
C553        C  0.51857974  0.04363703  0.97457325    -0.03900
C554        C  0.50875667  0.02464420  0.97361286     0.08320
C555        C  0.49956164  0.02370885  0.95431428     0.02110
H556        H  0.52712277  0.05001025  0.98751988     0.09770
H557        H  0.49056636  0.01108461  0.94794482     0.08840
N558        N  0.52008788  0.11371500  0.93937912    -0.34990
N559        N  0.51470721  0.12191823  0.92134670    -0.27170
C560        C  0.51326592  0.14274930  0.92395965    -0.02410
C561        C  0.51800896  0.14759447  0.94459017     0.06200
C562        C  0.52196170  0.12861734  0.95364074     0.04290
H563        H  0.50887057  0.15348397  0.91185216     0.09400
H564        H  0.52494790  0.12548225  0.96983937     0.08230
N565        N  0.49586564  0.86667748  0.08746917    -0.26160
N566        N  0.48623589  0.87500943  0.07141981    -0.34020
C567        C  0.48328614  0.86061625  0.05676522     0.02180
C568        C  0.49206665  0.84208110  0.06315459     0.08210
C569        C  0.49969499  0.84654112  0.08299033    -0.04890
H570        H  0.47609902  0.86410662  0.04208982     0.08880
H571        H  0.50846127  0.83634005  0.09297198     0.10080
Cu572      Cu  0.48364242  0.90622123  0.06528414     0.44170
Cu573      Cu  0.50469051  0.88445027  0.11353660     0.41990
Cu574      Cu  0.51914241  0.93479851  0.09406129     0.43880
N575        N  0.49541203  0.93396282  0.05471337    -0.33540
N576        N  0.50971532  0.94412080  0.06519380    -0.27800
C577        C  0.51552535  0.96093305  0.05441637    -0.03900
C578        C  0.50437586  0.96116222  0.03620035     0.08320
C579        C  0.49178118  0.94388658  0.03674940     0.02110
H580        H  0.52675635  0.97223939  0.05957315     0.09770
H581        H  0.48092480  0.93888078  0.02500418     0.08840
N582        N  0.51861389  0.92742158  0.12497900    -0.34990
N583        N  0.51245891  0.90960083  0.13299414    -0.27170
C584        C  0.51156517  0.91180873  0.15389886    -0.02410
C585        C  0.51770787  0.93192940  0.15895772     0.06200
C586        C  0.52186440  0.94119127  0.14013135     0.04290
H587        H  0.50662636  0.89982789  0.16454626     0.09400
H588        H  0.52593089  0.95723454  0.13745923     0.08230
N589        N  0.58975980  0.98740321  0.87529427    -0.26160
N590        N  0.57129027  0.98421149  0.88354851    -0.34020
C591        C  0.55713275  0.98228582  0.86864077     0.02180
C592        C  0.56664706  0.98383851  0.84960598     0.08210
C593        C  0.58748535  0.98734426  0.85434400    -0.04890
H594        H  0.54078835  0.98060698  0.87172560     0.08880
H595        H  0.59998174  0.98968553  0.84344189     0.10080
Cu596      Cu  0.56290173  0.98339524  0.91407957     0.44170
Cu597      Cu  0.61633857  0.99241854  0.89407114     0.41990
Cu598      Cu  0.59711247  0.00121164  0.94761182     0.43880
N599        N  0.55418939  0.98805425  0.94415074    -0.33540
N600        N  0.56766481  0.99576961  0.95732292    -0.27800
C601        C  0.55866390  0.99830574  0.97589090    -0.03900
C602        C  0.53844783  0.99175449  0.97405807     0.08320
C603        C  0.53598531  0.98541321  0.95375466     0.02110
H604        H  0.56617369  0.00454339  0.98952740     0.09770
H605        H  0.52203395  0.97968236  0.94647991     0.08840
N606        N  0.62738801  0.00058180  0.93897797    -0.34990
N607        N  0.63550124  0.99748333  0.92039682    -0.27170
C608        C  0.65640800  0.99769116  0.92255466    -0.02410
C609        C  0.66121404  0.00119200  0.94345684     0.06200
C610        C  0.64228679  0.00253832  0.95310054     0.04290
H611        H  0.66722886  0.99547579  0.90995294     0.09400
H612        H  0.63925727  0.00411512  0.96951825     0.08230
N613        N  0.58999429  0.86410354  0.99696766    -0.26160
N614        N  0.57191447  0.87180157  0.99110690    -0.34020
C615        C  0.55844912  0.85642021  0.98789795     0.02180
C616        C  0.56806399  0.83783301  0.99189439     0.08210
C617        C  0.58812171  0.84318435  0.99781080    -0.04890
H618        H  0.54233353  0.85876416  0.98404576     0.08880
H619        H  0.60030163  0.83270913  0.00255618     0.10080
Cu620      Cu  0.56279142  0.90222204  0.99074046     0.44170
Cu621      Cu  0.61578588  0.88317486  0.00400239     0.41990
Cu622      Cu  0.59605585  0.93527234  0.01387138     0.43880
N623        N  0.55324865  0.93129070  0.99920721    -0.33540
N624        N  0.56614513  0.94384302  0.00879243    -0.27800
C625        C  0.55663508  0.96184266  0.01286670    -0.03900
C626        C  0.53667756  0.96030666  0.00553646     0.08320
C627        C  0.53490456  0.94078520  0.99695334     0.02110
H628        H  0.56382668  0.97514059  0.02010814     0.09770
H629        H  0.52152132  0.93417104  0.98936348     0.08840
N630        N  0.62666261  0.92769467  0.01312866    -0.34990
N631        N  0.63489594  0.90927617  0.00962102    -0.27170
C632        C  0.65577062  0.91152756  0.00965144    -0.02410
C633        C  0.66050788  0.93235740  0.01346116     0.06200
C634        C  0.64151175  0.94188217  0.01522554     0.04290
H635        H  0.66661684  0.89903108  0.00704785     0.09400
H636        H  0.63842044  0.95823558  0.01713588     0.08230
C637        C  0.51524485  0.98557886  0.23099205     0.03420
C638        C  0.49970973  0.00115035  0.22952419     0.03420
C639        C  0.49884256  0.01727811  0.24457694     0.03420
C640        C  0.51404520  0.01833446  0.26058713     0.03420
C641        C  0.52953779  0.00276776  0.26203417     0.03420
C642        C  0.53000536  0.98634387  0.24732849     0.03420
C643        C  0.51255299  0.22192952  0.99552639     0.03420
C644        C  0.49676244  0.22216082  0.01080341     0.03420
C645        C  0.49676467  0.23752522  0.02653612     0.03420
C646        C  0.51255355  0.25277361  0.02703700     0.03420
C647        C  0.52804580  0.25294031  0.01141870     0.03420
C648        C  0.52808463  0.23747565  0.99571661     0.03420
C649        C  0.49862301  0.50172137  0.27755326     0.03420
C650        C  0.51437082  0.48640423  0.27809030     0.03420
C651        C  0.51478286  0.47032181  0.26304281     0.03420
C652        C  0.49922610  0.46939693  0.24745241     0.03420
C653        C  0.48369982  0.48497958  0.24661612     0.03420
C654        C  0.48347961  0.50117546  0.26161151     0.03420
C655        C  0.24181187  0.47882153  0.25894331     0.03420
C656        C  0.24237091  0.49432806  0.27424271     0.03420
C657        C  0.25815296  0.50923853  0.27404943     0.03420
C658        C  0.27304409  0.50888620  0.25822165     0.03420
C659        C  0.27257148  0.49337001  0.24297470     0.03420
C660        C  0.25700592  0.47826332  0.24340208     0.03420
N661        N  0.25848673  0.36543005  0.17317722    -0.26160
N662        N  0.26392859  0.37329461  0.19133812    -0.34020
C663        C  0.26682161  0.35810315  0.20505804     0.02180
C664        C  0.26352138  0.33930836  0.19547656     0.08210
C665        C  0.25801251  0.34449384  0.17514774    -0.04890
H666        H  0.27021582  0.36084209  0.22125319     0.08880
H667        H  0.25388050  0.33391103  0.16280879     0.10080
Cu668      Cu  0.26579711  0.40373117  0.19998458     0.44170
Cu669      Cu  0.25123926  0.38465292  0.14754405     0.41990
Cu670      Cu  0.24223690  0.43730372  0.16854077     0.43880
N671        N  0.26007070  0.43321664  0.21003192    -0.33540
N672        N  0.25005241  0.44617545  0.19789453    -0.27800
C673        C  0.24742917  0.46427887  0.20777757    -0.03900
C674        C  0.25621692  0.46233110  0.22717423     0.08320
C675        C  0.26413340  0.44249935  0.22821165     0.02110
H676        H  0.23986214  0.47777416  0.20132949     0.09770
H677        H  0.27205615  0.43535597  0.24115048     0.08840
N678        N  0.24225333  0.42962098  0.13781931    -0.34990
N679        N  0.24538793  0.41127790  0.12924396    -0.27170
C680        C  0.24554659  0.41391019  0.10836742    -0.02410
C681        C  0.24245985  0.43494292  0.10390880     0.06200
C682        C  0.24076251  0.44412075  0.12317137     0.04290
H683        H  0.24811916  0.40151714  0.09737877     0.09400
H684        H  0.23975450  0.46043662  0.12674088     0.08230
N685        N  0.38410867  0.48579571  0.17295317    -0.26160
N686        N  0.37628171  0.47999294  0.19100918    -0.34020
C687        C  0.39148173  0.47706558  0.20475632     0.02180
C688        C  0.41016826  0.48104030  0.19530298     0.08210
C689        C  0.40496380  0.48673694  0.17504320    -0.04890
H690        H  0.38889992  0.47336794  0.22091752     0.08880
H691        H  0.41549192  0.49140545  0.16286857     0.10080
Cu692      Cu  0.34569412  0.47908724  0.19916657     0.44170
Cu693      Cu  0.36482510  0.49290257  0.14729524     0.41990
Cu694      Cu  0.31311834  0.50612858  0.16739767     0.43880
N695        N  0.31666500  0.48719050  0.20887986    -0.33540
N696        N  0.30440357  0.49834842  0.19696758    -0.27800
C697        C  0.28671134  0.50224253  0.20714365    -0.03900
C698        C  0.28819274  0.49309625  0.22643508     0.08320
C699        C  0.30732418  0.48369409  0.22713726     0.02110
H700        H  0.27379896  0.51093581  0.20097010     0.09770
H701        H  0.31400107  0.47516680  0.23994371     0.08840
N702        N  0.32083385  0.50513457  0.13654970    -0.34990
N703        N  0.33881883  0.49967768  0.12841259    -0.27170
C704        C  0.33644630  0.49871580  0.10751744    -0.02410
C705        C  0.31607038  0.50400843  0.10259194     0.06200
C706        C  0.30685487  0.50777783  0.12150205     0.04290
H707        H  0.34852322  0.49431537  0.09677377     0.09400
H708        H  0.29072713  0.51117421  0.12435624     0.08230
N709        N  0.17327964  0.36511100  0.26257476    -0.26160
N710        N  0.19173171  0.37327010  0.26597215    -0.34020
C711        C  0.20585548  0.35834628  0.26782616     0.02180
C712        C  0.19630151  0.33935153  0.26606763     0.08210
C713        C  0.17548472  0.34418517  0.26249269    -0.04890
H714        H  0.22218966  0.36144044  0.26950851     0.08880
H715        H  0.16295489  0.33337468  0.25994232     0.10080
Cu716      Cu  0.19991712  0.40373468  0.26707550     0.44170
Cu717      Cu  0.14702379  0.38415465  0.25726992     0.41990
Cu718      Cu  0.16613427  0.43809306  0.24898837     0.43880
N719        N  0.20895695  0.43362808  0.26264603    -0.33540
N720        N  0.19581097  0.44711599  0.25490355    -0.27800
C721        C  0.20528338  0.46546220  0.25255508    -0.03900
C722        C  0.22542658  0.46310657  0.25923485     0.08320
C723        C  0.22735472  0.44276690  0.26548860     0.02110
H724        H  0.19814404  0.47930231  0.24636211     0.09770
H725        H  0.24106783  0.43515177  0.27135030     0.08840
N726        N  0.13585713  0.42906153  0.24868510    -0.34990
N727        N  0.12795025  0.41038926  0.25178225    -0.27170
C728        C  0.10703661  0.41218186  0.25118971    -0.02410
C729        C  0.10195943  0.43290997  0.24739583     0.06200
C730        C  0.12073119  0.44288646  0.24621863     0.04290
H731        H  0.09638178  0.39943689  0.25335809     0.09400
H732        H  0.12342247  0.45933267  0.24444201     0.08230
N733        N  0.17187218  0.48644864  0.38608341    -0.26160
N734        N  0.19003708  0.48086067  0.37840497    -0.34020
C735        C  0.20354683  0.47793536  0.39378034     0.02180
C736        C  0.19386944  0.48170439  0.41239242     0.08210
C737        C  0.17371219  0.48729417  0.40703920    -0.04890
H738        H  0.21970170  0.47429404  0.39139958     0.08880
H739        H  0.16142710  0.49173678  0.41753156     0.10080
Cu740      Cu  0.19928506  0.48012110  0.34806419     0.44170
Cu741      Cu  0.14615072  0.49305295  0.36678009     0.41990
Cu742      Cu  0.16681452  0.50299267  0.31472335     0.43880
N743        N  0.20947337  0.48851947  0.31924124    -0.33540
N744        N  0.19685303  0.49820757  0.30649958    -0.27800
C745        C  0.20669185  0.50228066  0.28866202    -0.03900
C746        C  0.22656369  0.49478434  0.29052778     0.08320
C747        C  0.22795176  0.48615511  0.31006359     0.02110
H748        H  0.19976632  0.50956156  0.27523694     0.09770
H749        H  0.24116052  0.47845171  0.31689311     0.08840
N750        N  0.13613705  0.50136699  0.32183734    -0.34990
N751        N  0.12757815  0.49809398  0.34016408    -0.27170
C752        C  0.10675611  0.49786825  0.33748775    -0.02410
C753        C  0.10238636  0.50119370  0.31646704     0.06200
C754        C  0.12156646  0.50292027  0.30729464     0.04290
H755        H  0.09570394  0.49547479  0.34985074     0.09400
H756        H  0.12504107  0.50452570  0.29098065     0.08230
N757        N  0.34008319  0.62310412  0.25009172    -0.26160
N758        N  0.32188355  0.61485062  0.24548854    -0.34020
C759        C  0.30787780  0.62974261  0.24251038     0.02180
C760        C  0.31718081  0.64872393  0.24503722     0.08210
C761        C  0.33771152  0.64402587  0.25007695    -0.04890
H762        H  0.29168689  0.62673545  0.23958982     0.08880
H763        H  0.34992251  0.65496089  0.25352510     0.10080
Cu764      Cu  0.31316761  0.58443218  0.24503371     0.44170
Cu765      Cu  0.36668963  0.60459528  0.25663577     0.41990
Cu766      Cu  0.34668090  0.55242484  0.26591154     0.43880
N767        N  0.30418449  0.55487075  0.25173608    -0.33540
N768        N  0.31759656  0.54231943  0.26048985    -0.27800
C769        C  0.30878025  0.52387833  0.26399955    -0.03900
C770        C  0.28866943  0.52519963  0.25717250     0.08320
C771        C  0.28607286  0.54500456  0.24951668     0.02110
H772        H  0.31636476  0.51067339  0.27100313     0.09770
H773        H  0.27217626  0.55170803  0.24300961     0.08840
N774        N  0.37701848  0.55986619  0.26501549    -0.34990
N775        N  0.38572590  0.57813067  0.26205110    -0.27170
C776        C  0.40655466  0.57512955  0.26210925    -0.02410
C777        C  0.41063212  0.55393663  0.26521983     0.06200
C778        C  0.39129214  0.54512887  0.26649565     0.04290
H779        H  0.41778508  0.58733499  0.25982702     0.09400
H780        H  0.38735338  0.52890337  0.26742812     0.08230
N781        N  0.24809451  0.62264270  0.33984577    -0.26160
N782        N  0.24265142  0.61370956  0.32225484    -0.34020
C783        C  0.24054296  0.62795715  0.30738252     0.02180
C784        C  0.24434524  0.64738297  0.31560828     0.08210
C785        C  0.24924325  0.64336887  0.33643485    -0.04890
H786        H  0.23786110  0.62396312  0.29133695     0.08880
H787        H  0.25382546  0.65452378  0.34807307     0.10080
Cu788      Cu  0.24185123  0.58256053  0.31657760     0.44170
Cu789      Cu  0.25575812  0.60406443  0.36583180     0.41990
Cu790      Cu  0.27924697  0.55633344  0.34433757     0.43880
N791        N  0.25226271  0.55417854  0.30721319    -0.33540
N792        N  0.26764609  0.54476374  0.31679407    -0.27800
C793        C  0.27208760  0.52709106  0.30666787    -0.03900
C794        C  0.25873688  0.52557877  0.28997269     0.08320
C795        C  0.24642371  0.54297923  0.29068876     0.02110
H796        H  0.28389496  0.51611718  0.31121527     0.09770
H797        H  0.23442751  0.54735979  0.27984346     0.08840
N798        N  0.27574402  0.56258976  0.37556605    -0.34990
N799        N  0.26531005  0.57821780  0.38375733    -0.27170
C800        C  0.26121760  0.57347064  0.40383046    -0.02410
C801        C  0.26945373  0.55391468  0.40835006     0.06200
C802        C  0.27891596  0.54800555  0.38999144     0.04290
H803        H  0.25185572  0.58299496  0.41394689     0.09400
H804        H  0.28670341  0.53360598  0.38665098     0.08230
C805        C  0.27936145  0.50230517  0.49714506     0.03420
C806        C  0.28074939  0.48701586  0.51308923     0.03420
C807        C  0.26551697  0.47119845  0.51443192     0.03420
C808        C  0.24908943  0.47060524  0.49978306     0.03420
C809        C  0.24796376  0.48554220  0.48362122     0.03420
C810        C  0.26322297  0.50134988  0.48215026     0.03420
C811        C  0.48950987  0.24412629  0.24019565     0.03420
C812        C  0.49027863  0.22832910  0.25522600     0.03420
C813        C  0.50634717  0.22797779  0.26984731     0.03420
C814        C  0.52149612  0.24356711  0.26954996     0.03420
C815        C  0.52066563  0.25939732  0.25459982     0.03420
C816        C  0.50467163  0.25971343  0.23990357     0.03420
N817        N  0.42192214  0.24008931  0.12527215    -0.26160
N818        N  0.44062855  0.23786691  0.13333475    -0.34020
C819        C  0.45460477  0.23567301  0.11831128     0.02180
C820        C  0.44474379  0.23612930  0.09943681     0.08210
C821        C  0.42388964  0.23923553  0.10430422    -0.04890
H822        H  0.47103285  0.23431016  0.12113343     0.08880
H823        H  0.41117336  0.24058649  0.09347631     0.10080
Cu824      Cu  0.44957895  0.23801362  0.16363835     0.44170
Cu825      Cu  0.39533161  0.24430271  0.14428222     0.41990
Cu826      Cu  0.41418217  0.24923608  0.19840373     0.43880
N827        N  0.45813119  0.24118840  0.19386734    -0.33540
N828        N  0.44400602  0.24605938  0.20767364    -0.27800
C829        C  0.45279952  0.24780622  0.22641512    -0.03900
C830        C  0.47358456  0.24370210  0.22402288     0.08320
C831        C  0.47657638  0.23963353  0.20321517     0.02110
H832        H  0.44473995  0.25186589  0.24054279     0.09770
H833        H  0.49097166  0.23596164  0.19549866     0.08840
N834        N  0.38404917  0.24951078  0.18956568    -0.34990
N835        N  0.37601196  0.24805052  0.17074908    -0.27170
C836        C  0.35511208  0.24910209  0.17277106    -0.02410
C837        C  0.35029864  0.25148935  0.19382691     0.06200
C838        C  0.36913983  0.25127297  0.20367979     0.04290
H839        H  0.34430593  0.24836134  0.15997527     0.09400
H840        H  0.37206273  0.25190751  0.22018474     0.08230
N841        N  0.51673492  0.11697540  0.33675026    -0.26160
N842        N  0.52653750  0.12552252  0.32090683    -0.34020
C843        C  0.52987200  0.11123182  0.30621975     0.02180
C844        C  0.52118727  0.09255370  0.31233818     0.08210
C845        C  0.51320533  0.09682028  0.33207517    -0.04890
H846        H  0.53723564  0.11488518  0.29167362     0.08880
H847        H  0.50437901  0.08646292  0.34183575     0.10080
Cu848      Cu  0.52898884  0.15685489  0.31484629     0.44170
Cu849      Cu  0.50719993  0.13434765  0.36290092     0.41990
Cu850      Cu  0.49246415  0.18415061  0.34302646     0.43880
N851        N  0.51674358  0.18442975  0.30412261    -0.33540
N852        N  0.50170061  0.19382458  0.31425342    -0.27800
C853        C  0.49544837  0.21049020  0.30349744    -0.03900
C854        C  0.50715366  0.21151911  0.28566678     0.08320
C855        C  0.52056931  0.19484767  0.28646455     0.02110
H856        H  0.48370651  0.22131713  0.30853990     0.09770
H857        H  0.53209939  0.19058628  0.27508099     0.08840
N858        N  0.49361063  0.17740327  0.37404647    -0.34990
N859        N  0.49932068  0.15956599  0.38229017    -0.27170
C860        C  0.50035789  0.16209404  0.40315652    -0.02410
C861        C  0.49504183  0.18257484  0.40801072     0.06200
C862        C  0.49114585  0.19158786  0.38894355     0.04290
H863        H  0.50503462  0.15008223  0.41387366     0.09400
H864        H  0.48800296  0.20771818  0.38573169     0.08230
N865        N  0.42259843  0.11479610  0.24665889    -0.26160
N866        N  0.44059013  0.12275173  0.24086907    -0.34020
C867        C  0.45428456  0.10756465  0.23767814     0.02180
C868        C  0.44493581  0.08881775  0.24157724     0.08210
C869        C  0.42477537  0.09388746  0.24744838    -0.04890
H870        H  0.47035415  0.11014903  0.23379396     0.08880
H871        H  0.41271129  0.08322011  0.25205052     0.10080
Cu872      Cu  0.44923792  0.15333723  0.24031646     0.44170
Cu873      Cu  0.39649705  0.13362094  0.25357659     0.41990
Cu874      Cu  0.41607231  0.18550307  0.26468836     0.43880
N875        N  0.45849219  0.18252350  0.24880534    -0.33540
N876        N  0.44571769  0.19465238  0.25907233    -0.27800
C877        C  0.45507087  0.21271827  0.26325607    -0.03900
C878        C  0.47476024  0.21172699  0.25514792     0.08320
C879        C  0.47658183  0.19239266  0.24614334     0.02110
H880        H  0.44796034  0.22566578  0.27117961     0.09770
H881        H  0.48987938  0.18609743  0.23814865     0.08840
N882        N  0.38546184  0.17799822  0.26332199    -0.34990
N883        N  0.37722938  0.15967543  0.25933620    -0.27170
C884        C  0.35634984  0.16203098  0.25907515    -0.02410
C885        C  0.35161866  0.18282578  0.26318742     0.06200
C886        C  0.37063733  0.19221509  0.26540646     0.04290
H887        H  0.34548876  0.14962868  0.25610471     0.09400
H888        H  0.37378100  0.20851482  0.26765471     0.08230
N889        N  0.63386037  0.32677857  0.24676487    -0.26160
N890        N  0.62505821  0.30872105  0.24293454    -0.34020
C891        C  0.63936982  0.29394604  0.24148122     0.02180
C892        C  0.65872318  0.30267792  0.24382850     0.08210
C893        C  0.65460635  0.32373424  0.24734551    -0.04890
H894        H  0.63543393  0.27776492  0.23999503     0.08880
H895        H  0.66571502  0.33585920  0.25046870     0.10080
Cu896      Cu  0.59431770  0.30207132  0.24182637     0.44170
Cu897      Cu  0.61554711  0.35322175  0.25294605     0.41990
Cu898      Cu  0.56311564  0.33385056  0.26849762     0.43880
N899        N  0.56515925  0.29281611  0.24916171    -0.33540
N900        N  0.55308646  0.30482215  0.26037230    -0.27800
C901        C  0.53513182  0.29498432  0.26393047    -0.03900
C902        C  0.53636249  0.27579468  0.25451548     0.08320
C903        C  0.55553835  0.27483709  0.24528694     0.02110
H904        H  0.52229643  0.30124504  0.27267388     0.09770
H905        H  0.56209199  0.26201441  0.23669849     0.08840
N906        N  0.57206705  0.36432232  0.26705390    -0.34990
N907        N  0.58992934  0.37211690  0.26068675    -0.27170
C908        C  0.58789621  0.39301535  0.25971772    -0.02410
C909        C  0.56792779  0.39827093  0.26598870     0.06200
C910        C  0.55854649  0.37961682  0.27030837     0.04290
H911        H  0.59991855  0.40352899  0.25466990     0.09400
H912        H  0.54254422  0.37711963  0.27450245     0.08230
N913        N  0.63476905  0.24017168  0.33915087    -0.26160
N914        N  0.62711561  0.23682547  0.32039174    -0.34020
C915        C  0.64241135  0.23435909  0.30676140     0.02180
C916        C  0.66099504  0.23592116  0.31697089     0.08210
C917        C  0.65570645  0.23988272  0.33760417    -0.04890
H918        H  0.64001572  0.23204779  0.29031101     0.08880
H919        H  0.66622787  0.24216663  0.35045801     0.10080
Cu920      Cu  0.59700568  0.23642715  0.31102944     0.44170
Cu921      Cu  0.61531663  0.24491738  0.36522195     0.41990
Cu922      Cu  0.56172102  0.25059886  0.34567145     0.43880
N923        N  0.56717560  0.24071472  0.30182283    -0.33540
N924        N  0.55331130  0.24660788  0.31552156    -0.27800
C925        C  0.53489463  0.24863619  0.30622086    -0.03900
C926        C  0.53759185  0.24386664  0.28554990     0.08320
C927        C  0.55819482  0.23887006  0.28315798     0.02110
H928        H  0.52070162  0.25310552  0.31389386     0.09770
H929        H  0.56598717  0.23415901  0.26907851     0.08840
N930        N  0.57015173  0.25090734  0.37609457    -0.34990
N931        N  0.58883136  0.24887082  0.38421880    -0.27170
C932        C  0.58679332  0.24936904  0.40516935    -0.02410
C933        C  0.56587652  0.25200975  0.41000304     0.06200
C934        C  0.55606630  0.25260758  0.39108293     0.04290
H935        H  0.59949619  0.24795477  0.41600359     0.09400
H936        H  0.53962527  0.25355040  0.38818743     0.08230
N937        N  0.49727381  0.37037019  0.17176736    -0.26160
N938        N  0.48695144  0.36208172  0.18741905    -0.34020
C939        C  0.48334517  0.37656048  0.20184651     0.02180
C940        C  0.49239649  0.39508493  0.19579705     0.08210
C941        C  0.50087916  0.39054419  0.17633623    -0.04890
H942        H  0.47549697  0.37314093  0.21619543     0.08880
H943        H  0.51004558  0.40073608  0.16671789     0.10080
Cu944      Cu  0.48392242  0.33083741  0.19379412     0.44170
Cu945      Cu  0.50718010  0.35263655  0.14600056     0.41990
Cu946      Cu  0.52069002  0.30289701  0.16679447     0.43880
N947        N  0.49540112  0.30311217  0.20503666    -0.33540
N948        N  0.51057395  0.29347657  0.19534022    -0.27800
C949        C  0.51633816  0.27678668  0.20631740    -0.03900
C950        C  0.50417085  0.27596947  0.22384462     0.08320
C951        C  0.49099576  0.29281918  0.22264409     0.02110
H952        H  0.52812220  0.26583540  0.20165508     0.09770
H953        H  0.47929893  0.29732655  0.23375743     0.08840
N954        N  0.51996881  0.30915030  0.13567064    -0.34990
N955        N  0.51474899  0.32696932  0.12708231    -0.27170
C956        C  0.51366318  0.32406595  0.10626969    -0.02410
C957        C  0.51836846  0.30333476  0.10179930     0.06200
C958        C  0.52200913  0.29460707  0.12106181     0.04290
H959        H  0.50926557  0.33599919  0.09535203     0.09400
H960        H  0.52457076  0.27846213  0.12465788     0.08230
C961        C  0.51505587  0.24790021  0.48365595     0.03420
C962        C  0.51536702  0.26296995  0.49967421     0.03420
C963        C  0.50005997  0.26255485  0.51541874     0.03420
C964        C  0.48440854  0.24711780  0.51508723     0.03420
C965        C  0.48406404  0.23206246  0.49900293     0.03420
C966        C  0.49937949  0.23249460  0.48320832     0.03420
C967        C  0.27170207  0.24347027  0.52022157     0.03420
C968        C  0.25620369  0.25865273  0.52092943     0.03420
C969        C  0.24006129  0.25822708  0.50640743     0.03420
C970        C  0.23967639  0.24298466  0.49087765     0.03420
C971        C  0.25528422  0.22792681  0.49008082     0.03420
C972        C  0.27125501  0.22811036  0.50478753     0.03420
N973        N  0.17260126  0.37254781  0.50010065    -0.26160
N974        N  0.19092349  0.36363829  0.49850648    -0.34020
C975        C  0.20575572  0.37783859  0.49743333     0.02180
C976        C  0.19698773  0.39726034  0.49751680     0.08210
C977        C  0.17569846  0.39338059  0.49950600    -0.04890
H978        H  0.22195094  0.37381839  0.49744873     0.08880
H979        H  0.16345580  0.40474720  0.50057133     0.10080
Cu980      Cu  0.19850766  0.33322926  0.49826852     0.44170
Cu981      Cu  0.14558314  0.35417805  0.50438227     0.41990
Cu982      Cu  0.16499763  0.30019931  0.51517305     0.43880
N983        N  0.20797376  0.30380735  0.50345624    -0.33540
N984        N  0.19459839  0.29045103  0.51092152    -0.27800
C985        C  0.20381231  0.27199559  0.51331003    -0.03900
C986        C  0.22407343  0.27424746  0.50696721     0.08320
C987        C  0.22632450  0.29457616  0.50085971     0.02110
H988        H  0.19634271  0.25809747  0.51895307     0.09770
H989        H  0.24009287  0.30200904  0.49489744     0.08840
N990        N  0.13488722  0.30910416  0.51290251    -0.34990
N991        N  0.12670904  0.32758747  0.50943363    -0.27170
C992        C  0.10581988  0.32522326  0.50916683    -0.02410
C993        C  0.10109680  0.30430035  0.51264935     0.06200
C994        C  0.12008832  0.29487606  0.51445170     0.04290
H995        H  0.09495667  0.33772254  0.50665086     0.09400
H996        H  0.12334196  0.27853809  0.51610284     0.08230
N997        N  0.12630660  0.23922084  0.42168654    -0.26160
N998        N  0.13425028  0.23503492  0.44014223    -0.34020
C999        C  0.11917973  0.23250781  0.45403498     0.02180
C1000       C  0.10034206  0.23473540  0.44433502     0.08210
C1001       C  0.10538571  0.23925413  0.42369228    -0.04890
H1002       H  0.12199513  0.22997865  0.47037405     0.08880
H1003       H  0.09469626  0.24233879  0.41115340     0.10080
Cu1004     Cu  0.16461505  0.23401464  0.44878913     0.44170
Cu1005     Cu  0.14560626  0.24527897  0.39560102     0.41990
Cu1006     Cu  0.19829639  0.25522295  0.41588503     0.43880
N1007       N  0.19421603  0.23955053  0.45825631    -0.33540
N1008       N  0.20726526  0.24858838  0.44548651    -0.27800
C1009       C  0.22551354  0.25116853  0.45502011    -0.03900
C1010       C  0.22356728  0.24339423  0.47485251     0.08320
C1011       C  0.20358468  0.23609331  0.47650379     0.02110
H1012       H  0.23910225  0.25803216  0.44805297     0.09770
H1013       H  0.19641578  0.22893838  0.48986578     0.08840
N1014       N  0.19041695  0.25461962  0.38523209    -0.34990
N1015       N  0.17211758  0.25093681  0.37682959    -0.27170
C1016       C  0.17465204  0.25066262  0.35590826    -0.02410
C1017       C  0.19551388  0.25439269  0.35131038     0.06200
C1018       C  0.20473855  0.25649391  0.37046807     0.04290
H1019       H  0.16232870  0.24776495  0.34493690     0.09400
H1020       H  0.22102001  0.25823623  0.37379599     0.08230
N1021       N  0.33922601  0.23631623  0.63469236    -0.26160
N1022       N  0.32069588  0.23373022  0.62636659    -0.34020
C1023       C  0.30646749  0.23178215  0.64117764     0.02180
C1024       C  0.31596820  0.23273264  0.66023679     0.08210
C1025       C  0.33689883  0.23587687  0.65563389    -0.04890
H1026       H  0.29009476  0.23055353  0.63802881     0.08880
H1027       H  0.34941040  0.23773480  0.66662354     0.10080
Cu1028     Cu  0.31226191  0.23393132  0.59595169     0.44170
Cu1029     Cu  0.36590571  0.24097623  0.61592659     0.41990
Cu1030     Cu  0.34712529  0.24877024  0.56193745     0.43880
N1031       N  0.30348475  0.23898309  0.56607778    -0.33540
N1032       N  0.31732433  0.24531644  0.55257349    -0.27800
C1033       C  0.30832173  0.24796537  0.53402958    -0.03900
C1034       C  0.28770186  0.24301889  0.53629448     0.08320
C1035       C  0.28502893  0.23742350  0.55676758     0.02110
H1036       H  0.31614297  0.25303818  0.52009505     0.09770
H1037       H  0.27086061  0.23260166  0.56427022     0.08840
N1038       N  0.37726758  0.24802668  0.57086574    -0.34990
N1039       N  0.38524610  0.24547974  0.58959500    -0.27170
C1040       C  0.40616842  0.24594507  0.58761042    -0.02410
C1041       C  0.41109175  0.24906366  0.56667665     0.06200
C1042       C  0.39224861  0.24988762  0.55683571     0.04290
H1043       H  0.41692310  0.24425561  0.60035849     0.09400
H1044       H  0.38934580  0.25120805  0.54037129     0.08230
N1045       N  0.24583739  0.11494958  0.42199308    -0.26160
N1046       N  0.24083885  0.12347519  0.43997451    -0.34020
C1047       C  0.23889516  0.10885677  0.45446983     0.02180
C1048       C  0.24238227  0.08971866  0.44564625     0.08210
C1049       C  0.24694711  0.09414097  0.42488590    -0.04890
H1050       H  0.23626545  0.11230192  0.47066510     0.08880
H1051       H  0.25103822  0.08314768  0.41290074     0.10080
Cu1052     Cu  0.23937384  0.15421114  0.44750568     0.44170
Cu1053     Cu  0.25223134  0.13329636  0.39544859     0.41990
Cu1054     Cu  0.26497941  0.18551531  0.41521339     0.43880
N1055       N  0.24780318  0.18317323  0.45711295    -0.33540
N1056       N  0.25872244  0.19511187  0.44471177    -0.27800
C1057       C  0.26323494  0.21291219  0.45446492    -0.03900
C1058       C  0.25471387  0.21182325  0.47404061     0.08320
C1059       C  0.24502174  0.19282687  0.47533346     0.02110
H1060       H  0.27178050  0.22567732  0.44776839     0.09770
H1061       H  0.23672568  0.18649959  0.48845781     0.08840
N1062       N  0.26340886  0.17749697  0.38461207    -0.34990
N1063       N  0.25872863  0.15929898  0.37640585    -0.27170
C1064       C  0.25842724  0.16159770  0.35546653    -0.02410
C1065       C  0.26325530  0.18219110  0.35067297     0.06200
C1066       C  0.26593033  0.19156294  0.36968165     0.04290
H1067       H  0.25493893  0.14929537  0.34461416     0.09400
H1068       H  0.26875651  0.20779284  0.37274170     0.08230
N1069       N  0.33838074  0.11451429  0.51553070    -0.26160
N1070       N  0.32032527  0.12311304  0.51988308    -0.34020
C1071       C  0.30589196  0.10851569  0.52207789     0.02180
C1072       C  0.31481393  0.08930268  0.51942556     0.08210
C1073       C  0.33559163  0.09366871  0.51511493    -0.04890
H1074       H  0.28968820  0.11200880  0.52417969     0.08880
H1075       H  0.34765758  0.08261149  0.51157520     0.10080
Cu1076     Cu  0.31265764  0.15379515  0.52003239     0.44170
Cu1077     Cu  0.36487930  0.13278594  0.50886840     0.41990
Cu1078     Cu  0.34556569  0.18507120  0.49537056     0.43880
N1079       N  0.30331397  0.18268922  0.51125435    -0.33540
N1080       N  0.31600018  0.19470111  0.50077231    -0.27800
C1081       C  0.30654807  0.21269646  0.49644175    -0.03900
C1082       C  0.28688170  0.21165486  0.50465402     0.08320
C1083       C  0.28521531  0.19247059  0.51392226     0.02110
H1084       H  0.31357788  0.22563184  0.48843078     0.09770
H1085       H  0.27202131  0.18622141  0.52212551     0.08840
N1086       N  0.37600713  0.17687102  0.49732118    -0.34990
N1087       N  0.38405384  0.15863217  0.50207750    -0.27170
C1088       C  0.40494501  0.16079665  0.50234461    -0.02410
C1089       C  0.40989716  0.18136128  0.49746529     0.06200
C1090       C  0.39098399  0.19083872  0.49479518     0.04290
H1091       H  0.41565811  0.14841365  0.50587567     0.09400
H1092       H  0.38797927  0.20707530  0.49199336     0.08230
N1093       N  0.24953354  0.32712246  0.63371172    -0.26160
N1094       N  0.24399945  0.30931288  0.62524085    -0.34020
C1095       C  0.24152722  0.29494120  0.63992951     0.02180
C1096       C  0.24519380  0.30372011  0.65911009     0.08210
C1097       C  0.25044130  0.32430247  0.65457011    -0.04890
H1098       H  0.23841195  0.27884649  0.63650697     0.08880
H1099       H  0.25486554  0.33620553  0.66552097     0.10080
Cu1100     Cu  0.24255508  0.30240461  0.59432169     0.44170
Cu1101     Cu  0.25690508  0.35301591  0.61477733     0.41990
Cu1102     Cu  0.27228373  0.33298642  0.56304260     0.43880
N1103       N  0.25091364  0.29263995  0.56535778    -0.33540
N1104       N  0.26342498  0.30381188  0.55372737    -0.27800
C1105       C  0.26739766  0.29347377  0.53607800    -0.03900
C1106       C  0.25679212  0.27490927  0.53691515     0.08320
C1107       C  0.24647082  0.27480884  0.55561765     0.02110
H1108       H  0.27694646  0.29914544  0.52352355     0.09770
H1109       H  0.23669605  0.26266703  0.56175776     0.08840
N1110       N  0.27115934  0.36385031  0.57107752    -0.34990
N1111       N  0.26475016  0.37182936  0.58888924    -0.27170
C1112       C  0.26365897  0.39269915  0.58657071    -0.02410
C1113       C  0.26988609  0.39783037  0.56645882     0.06200
C1114       C  0.27437179  0.37904366  0.55730394     0.04290
H1115       H  0.25847740  0.40329759  0.59849158     0.09400
H1116       H  0.27854975  0.37638915  0.54127196     0.08230
C1117       C  0.27747662  0.24958859  0.24598536     0.03420
C1118       C  0.26187558  0.26506363  0.24607215     0.03420
C1119       C  0.24650377  0.26501823  0.26176204     0.03420
C1120       C  0.24659613  0.24945601  0.27728290     0.03420
C1121       C  0.26210494  0.23388182  0.27714263     0.03420
C1122       C  0.27765996  0.23400944  0.26156218     0.03420
C1123       C  0.27914618  0.98525947  0.01424950     0.03420
C1124       C  0.27924273  0.00156192  0.99942579     0.03420
C1125       C  0.26375562  0.00251341  0.98387688     0.03420
C1126       C  0.24778352  0.98744879  0.98353832     0.03420
C1127       C  0.24750473  0.97120310  0.99839552     0.03420
C1128       C  0.26337977  0.96994337  0.01361977     0.03420
C1129       C  0.73464920  0.48280812  0.51113397     0.03420
C1130       C  0.73488437  0.49828535  0.49548288     0.03420
C1131       C  0.75035885  0.51389380  0.49558193     0.03420
C1132       C  0.76551123  0.51421971  0.51146247     0.03420
C1133       C  0.76544487  0.49866404  0.52697193     0.03420
C1134       C  0.75011493  0.48290173  0.52677253     0.03420
C1135       C  0.51335209  0.48252942  0.73421705     0.03420
C1136       C  0.49768834  0.49795436  0.73382313     0.03420
C1137       C  0.49722704  0.51353178  0.74936299     0.03420
C1138       C  0.51261145  0.51388015  0.76509625     0.03420
C1139       C  0.52840105  0.49858161  0.76537629     0.03420
C1140       C  0.52881558  0.48294258  0.74988377     0.03420
C1141       C  0.49876499  0.71821714  0.51435241     0.03420
C1142       C  0.51417446  0.71797141  0.49866926     0.03420
C1143       C  0.52947672  0.73375787  0.49812963     0.03420
C1144       C  0.52938534  0.74963707  0.51341568     0.03420
C1145       C  0.51413277  0.74966644  0.52927347     0.03420
C1146       C  0.49880043  0.73395851  0.52970206     0.03420
C1147       C  0.74962398  0.75096629  0.73317474     0.03420
C1148       C  0.76459393  0.73485929  0.73356731     0.03420
C1149       C  0.76373747  0.71926303  0.74904948     0.03420
C1150       C  0.74816412  0.72004381  0.76453147     0.03420
C1151       C  0.73305771  0.73603240  0.76408373     0.03420
C1152       C  0.73380279  0.75152032  0.74843112     0.03420
C1153       C  0.01348525  0.48752171  0.77841203     0.03420
C1154       C  0.99725784  0.50238223  0.77833998     0.03420
C1155       C  0.98181828  0.50172014  0.76268488     0.03420
C1156       C  0.98302756  0.48653720  0.74671387     0.03420
C1157       C  0.99890677  0.47129683  0.74724260     0.03420
C1158       C  0.01411180  0.47173072  0.76311767     0.03420
C1159       C  0.01455094  0.76526783  0.49988923     0.03420
C1160       C  0.99915672  0.76495173  0.51556451     0.03420
C1161       C  0.98391633  0.74912014  0.51564189     0.03420
C1162       C  0.98399854  0.73362981  0.50001742     0.03420
C1163       C  0.99947687  0.73394188  0.48439356     0.03420
C1164       C  0.01481509  0.74969320  0.48436293     0.03420
C1165       C  0.75642069  0.75780141  0.52010359     0.03420
C1166       C  0.74109838  0.75721020  0.50470639     0.03420
C1167       C  0.74123658  0.74141796  0.48972935     0.03420
C1168       C  0.75683775  0.72633049  0.49001790     0.03420
C1169       C  0.77197203  0.72670415  0.50558015     0.03420
C1170       C  0.77170674  0.74239712  0.52064834     0.03420
N1171       N  0.62720364  0.82578782  0.51014401    -0.26160
N1172       N  0.63557413  0.80723039  0.51253812    -0.34020
C1173       C  0.62092770  0.79293953  0.51481330     0.02180
C1174       C  0.60187950  0.80237682  0.51449534     0.08210
C1175       C  0.60633675  0.82339230  0.51119959    -0.04890
H1176       H  0.62422851  0.77655654  0.51592015     0.08880
H1177       H  0.59530764  0.83591101  0.50970301     0.10080
Cu1178     Cu  0.66576140  0.79857543  0.51235222     0.44170
Cu1179     Cu  0.64598777  0.85243213  0.50487576     0.41990
Cu1180     Cu  0.69962230  0.83259980  0.49719013     0.43880
N1181       N  0.69534048  0.78915385  0.50766237    -0.33540
N1182       N  0.70889471  0.80278920  0.50105901    -0.27800
C1183       C  0.72735005  0.79363609  0.49879944    -0.03900
C1184       C  0.72496181  0.77311203  0.50426636     0.08320
C1185       C  0.70451669  0.77066453  0.50983318     0.02110
H1186       H  0.74135387  0.80132345  0.49379171     0.09770
H1187       H  0.69697497  0.75668152  0.51516375     0.08840
N1188       N  0.69115985  0.86290899  0.49779296    -0.34990
N1189       N  0.67263240  0.87128590  0.50002656    -0.27170
C1190       C  0.67509409  0.89220308  0.49948596    -0.02410
C1191       C  0.69616221  0.89675184  0.49680807     0.06200
C1192       C  0.70551242  0.87759637  0.49625695     0.04290
H1193       H  0.66256120  0.90319042  0.50103443     0.09400
H1194       H  0.72182935  0.87413286  0.49562297     0.08230
N1195       N  0.75264577  0.61281976  0.42094544    -0.26160
N1196       N  0.74891963  0.62086819  0.43945143    -0.34020
C1197       C  0.74670554  0.60584507  0.45344702     0.02180
C1198       C  0.74868789  0.58697824  0.44373240     0.08210
C1199       C  0.75272669  0.59187905  0.42299847    -0.04890
H1200       H  0.74446793  0.60869236  0.46982778     0.08880
H1201       H  0.75545660  0.58109950  0.41043684     0.10080
Cu1202     Cu  0.74808924  0.65123633  0.44802751     0.44170
Cu1203     Cu  0.75791544  0.63195263  0.39475585     0.41990
Cu1204     Cu  0.76811014  0.68506270  0.41472133     0.43880
N1205       N  0.75371743  0.68080903  0.45747265    -0.33540
N1206       N  0.76214038  0.69405384  0.44447238    -0.27800
C1207       C  0.76459385  0.71238966  0.45395073    -0.03900
C1208       C  0.75739979  0.71024786  0.47397914     0.08320
C1209       C  0.75062863  0.69007654  0.47583207     0.02110
H1210       H  0.77093483  0.72616735  0.44680848     0.09770
H1211       H  0.74396783  0.68275079  0.48936696     0.08840
N1212       N  0.76699967  0.67679854  0.38416418    -0.34990
N1213       N  0.76308113  0.65840576  0.37596453    -0.27170
C1214       C  0.76255268  0.66069294  0.35503912    -0.02410
C1215       C  0.76647267  0.68145746  0.35024957     0.06200
C1216       C  0.76890043  0.69094688  0.36921592     0.04290
H1217       H  0.75951279  0.64826543  0.34418996     0.09400
H1218       H  0.77110121  0.70729074  0.37220989     0.08230
N1219       N  0.88512257  0.65838312  0.50254134    -0.26160
N1220       N  0.87684140  0.67628207  0.49696948    -0.34020
C1221       C  0.89161533  0.69046938  0.49431990     0.02180
C1222       C  0.91064275  0.68149918  0.49786124     0.08210
C1223       C  0.90595620  0.66100077  0.50329093    -0.04890
H1224       H  0.88838720  0.70656222  0.49097933     0.08880
H1225       H  0.91681209  0.64899025  0.50759265     0.10080
Cu1226     Cu  0.84620029  0.68379094  0.49490986     0.44170
Cu1227     Cu  0.86618034  0.63241847  0.50975446     0.41990
Cu1228     Cu  0.81432102  0.65312255  0.52241794     0.43880
N1229       N  0.81692028  0.69351017  0.50172229    -0.33540
N1230       N  0.80483581  0.68197874  0.51341681    -0.27800
C1231       C  0.78684385  0.69185847  0.51652060    -0.03900
C1232       C  0.78794257  0.71056809  0.50623273     0.08320
C1233       C  0.80716359  0.71124367  0.49700125     0.02110
H1234       H  0.77398267  0.68585682  0.52541035     0.09770
H1235       H  0.81363545  0.72370439  0.48784400     0.08840
N1236       N  0.82176686  0.62232998  0.52111144    -0.34990
N1237       N  0.83976575  0.61388299  0.51627173    -0.27170
C1238       C  0.83693130  0.59307183  0.51504041    -0.02410
C1239       C  0.81614876  0.58850436  0.51924630     0.06200
C1240       C  0.80730154  0.60766089  0.52274694     0.04290
H1241       H  0.84898550  0.58219566  0.51095774     0.09400
H1242       H  0.79113144  0.61116536  0.52499693     0.08230
N1243       N  0.62768040  0.73566042  0.42189690    -0.26160
N1244       N  0.63609264  0.73049346  0.43988997    -0.34020
C1245       C  0.62140844  0.72804627  0.45421348     0.02180
C1246       C  0.60231841  0.73130134  0.44528682     0.08210
C1247       C  0.60685260  0.73635447  0.42463942    -0.04890
H1248       H  0.62473610  0.72500955  0.47036298     0.08880
H1249       H  0.59589213  0.74034371  0.41260627     0.10080
Cu1250     Cu  0.66672738  0.72856287  0.44759968     0.44170
Cu1251     Cu  0.64626563  0.74241539  0.39545902     0.41990
Cu1252     Cu  0.69848772  0.75364229  0.41556453     0.43880
N1253       N  0.69616253  0.73535477  0.45696793    -0.33540
N1254       N  0.70829732  0.74612707  0.44464191    -0.27800
C1255       C  0.72634079  0.74979930  0.45421078    -0.03900
C1256       C  0.72525471  0.74084755  0.47359100     0.08320
C1257       C  0.70596624  0.73179323  0.47496810     0.02110
H1258       H  0.73917288  0.75829381  0.44760402     0.09770
H1259       H  0.69945473  0.72364144  0.48809301     0.08840
N1260       N  0.69069365  0.75284568  0.38493166    -0.34990
N1261       N  0.67250185  0.74873799  0.37651664    -0.27170
C1262       C  0.67508872  0.74844827  0.35559643    -0.02410
C1263       C  0.69589713  0.75257652  0.35102175     0.06200
C1264       C  0.70501754  0.75490828  0.37020846     0.04290
H1265       H  0.66285018  0.74523555  0.34461949     0.09400
H1266       H  0.72124834  0.75689476  0.37362220     0.08230
N1267       N  0.83930909  0.73552082  0.63503161    -0.26160
N1268       N  0.82083511  0.73218407  0.62683189    -0.34020
C1269       C  0.80682564  0.72961737  0.64176428     0.02180
C1270       C  0.81645423  0.73101078  0.66072449     0.08210
C1271       C  0.83717918  0.73500570  0.65597240    -0.04890
H1272       H  0.79047572  0.72777109  0.63879093     0.08880
H1273       H  0.84967920  0.73745332  0.66686012     0.10080
Cu1274     Cu  0.81204794  0.73257036  0.59650285     0.44170
Cu1275     Cu  0.86574629  0.74129299  0.61635201     0.41990
Cu1276     Cu  0.84653682  0.74911584  0.56284213     0.43880
N1277       N  0.80309189  0.73833206  0.56680017    -0.33540
N1278       N  0.81681000  0.74533139  0.55349975    -0.27800
C1279       C  0.80784251  0.74810959  0.53497255    -0.03900
C1280       C  0.78735719  0.74261170  0.53703672     0.08320
C1281       C  0.78472480  0.73646222  0.55735408     0.02110
H1282       H  0.81564620  0.75342944  0.52111887     0.09770
H1283       H  0.77070300  0.73089334  0.56461070     0.08840
N1284       N  0.87674131  0.74883157  0.57142715    -0.34990
N1285       N  0.88488483  0.74642598  0.59008813    -0.27170
C1286       C  0.90577072  0.74729951  0.58798820    -0.02410
C1287       C  0.91050707  0.75049070  0.56702164     0.06200
C1288       C  0.89158183  0.75093185  0.55729589     0.04290
H1289       H  0.91661427  0.74577013  0.60067838     0.09400
H1290       H  0.88850159  0.75207585  0.54085661     0.08230
N1291       N  0.75037431  0.82580838  0.63351842    -0.26160
N1292       N  0.74569411  0.80773842  0.62507294    -0.34020
C1293       C  0.74374292  0.79331409  0.63977497     0.02180
C1294       C  0.74682272  0.80229152  0.65895132     0.08210
C1295       C  0.75123166  0.82307615  0.65440263    -0.04890
H1296       H  0.74120912  0.77710759  0.63638214     0.08880
H1297       H  0.75493292  0.83520131  0.66537812     0.10080
Cu1298     Cu  0.74403767  0.80066572  0.59422301     0.44170
Cu1299     Cu  0.75643676  0.85203757  0.61450330     0.41990
Cu1300     Cu  0.77014562  0.83279243  0.56182440     0.43880
N1301       N  0.75105870  0.79146874  0.56474241    -0.33540
N1302       N  0.76214507  0.80343643  0.55248573    -0.27800
C1303       C  0.76568999  0.79346371  0.53454480    -0.03900
C1304       C  0.75627651  0.77429362  0.53583852     0.08320
C1305       C  0.74715948  0.77343666  0.55514576     0.02110
H1306       H  0.77435461  0.79967501  0.52160596     0.09770
H1307       H  0.73870241  0.76060896  0.56183332     0.08840
N1308       N  0.76882046  0.86346058  0.57034234    -0.34990
N1309       N  0.76305905  0.87120535  0.58848010    -0.27170
C1310       C  0.76183229  0.89210306  0.58642369    -0.02410
C1311       C  0.76730140  0.89745557  0.56614234     0.06200
C1312       C  0.77146474  0.87879492  0.55662514     0.04290
H1313       H  0.75715037  0.90257739  0.59865976     0.09400
H1314       H  0.77513263  0.87632204  0.54043994     0.08230
C1315       C  0.76279535  0.73309819  0.27683900     0.03420
C1316       C  0.74713590  0.74850785  0.27698247     0.03420
C1317       C  0.74695371  0.76413658  0.26150201     0.03420
C1318       C  0.76254580  0.76452198  0.24600278     0.03420
C1319       C  0.77818293  0.74906429  0.24583448     0.03420
C1320       C  0.77827280  0.73332203  0.26122033     0.03420
C1321       C  0.73448039  0.99874374  0.99525660     0.03420
C1322       C  0.73443893  0.98326667  0.01092675     0.03420
C1323       C  0.75004987  0.98324787  0.02642602     0.03420
C1324       C  0.76570088  0.99866979  0.02617642     0.03420
C1325       C  0.76566309  0.01420966  0.01061669     0.03420
C1326       C  0.75002119  0.01429312  0.99519296     0.03420
C1327       C  0.77834224  0.50246843  0.00014615     0.03420
C1328       C  0.77910136  0.48664026  0.01544460     0.03420
C1329       C  0.76398110  0.47069086  0.01557959     0.03420
C1330       C  0.74812256  0.47055133  0.00035680     0.03420
C1331       C  0.74749499  0.48614678  0.98486514     0.03420
C1332       C  0.76264249  0.50206895  0.98473854     0.03420
C1333       C  0.77170935  0.24304912  0.02000360     0.03420
C1334       C  0.75585416  0.25786441  0.02062165     0.03420
C1335       C  0.74009165  0.25738564  0.00569116     0.03420
C1336       C  0.74024141  0.24219079  0.99010178     0.03420
C1337       C  0.75595084  0.22722643  0.98966303     0.03420
C1338       C  0.77172656  0.22768418  0.00457536     0.03420
N1339       N  0.62719536  0.23692200  0.92095975    -0.26160
N1340       N  0.63545463  0.23385093  0.93946193    -0.34020
C1341       C  0.62069982  0.23212783  0.95375792     0.02180
C1342       C  0.60166101  0.23356521  0.94430397     0.08210
C1343       C  0.60631318  0.23687861  0.92331661    -0.04890
H1344       H  0.62395448  0.23078744  0.97014472     0.08880
H1345       H  0.59541387  0.23919490  0.91079844     0.10080
Cu1346     Cu  0.66583186  0.23318333  0.94750764     0.44170
Cu1347     Cu  0.64637065  0.24211045  0.89468423     0.41990
Cu1348     Cu  0.69985760  0.25290773  0.91416468     0.43880
N1349       N  0.69532576  0.23854501  0.95693751    -0.33540
N1350       N  0.70868838  0.24683403  0.94399267    -0.27800
C1351       C  0.72686509  0.24938101  0.95368649    -0.03900
C1352       C  0.72446202  0.24240979  0.97378550     0.08320
C1353       C  0.70433783  0.23560756  0.97543042     0.02110
H1354       H  0.74067593  0.25575402  0.94668824     0.09770
H1355       H  0.69682953  0.22912274  0.98894515     0.08840
N1356       N  0.69100550  0.25256456  0.88370236    -0.34990
N1357       N  0.67262230  0.24819221  0.87575262    -0.27170
C1358       C  0.67457328  0.24808736  0.85478763    -0.02410
C1359       C  0.69504927  0.25282815  0.84970066     0.06200
C1360       C  0.70476836  0.25533210  0.86851694     0.04290
H1361       H  0.66211453  0.24474871  0.84409206     0.09400
H1362       H  0.72104942  0.25809476  0.87117967     0.08230
N1363       N  0.74978952  0.11398188  0.92113600    -0.26160
N1364       N  0.74438923  0.12222898  0.93913292    -0.34020
C1365       C  0.74210615  0.10734515  0.95331582     0.02180
C1366       C  0.74575797  0.08835066  0.94420907     0.08210
C1367       C  0.75079275  0.09313512  0.92366038    -0.04890
H1368       H  0.73907336  0.11049984  0.96949784     0.08880
H1369       H  0.75510806  0.08236148  0.91155627     0.10080
Cu1370     Cu  0.74248230  0.15293548  0.94698558     0.44170
Cu1371     Cu  0.75684664  0.13257858  0.89503960     0.41990
Cu1372     Cu  0.77012037  0.18401777  0.91600355     0.43880
N1373       N  0.75017070  0.18213209  0.95671155    -0.33540
N1374       N  0.76201414  0.19384992  0.94496205    -0.27800
C1375       C  0.76587014  0.21179677  0.95472804    -0.03900
C1376       C  0.75588973  0.21109526  0.97360957     0.08320
C1377       C  0.74607459  0.19212359  0.97450546     0.02110
H1378       H  0.77502087  0.22438246  0.94851170     0.09770
H1379       H  0.73695018  0.18597759  0.98715256     0.08840
N1380       N  0.76834307  0.17682866  0.88521390    -0.34990
N1381       N  0.76351832  0.15887442  0.87661667    -0.27170
C1382       C  0.76242620  0.16180521  0.85580700    -0.02410
C1383       C  0.76667344  0.18264798  0.85142430     0.06200
C1384       C  0.76999998  0.19141299  0.87067067     0.04290
H1385       H  0.75845519  0.14977516  0.84483284     0.09400
H1386       H  0.77224149  0.20757857  0.87436513     0.08230
N1387       N  0.83995103  0.11370904  0.01070478    -0.26160
N1388       N  0.82147374  0.12192830  0.01386900    -0.34020
C1389       C  0.80731483  0.10704658  0.01577534     0.02180
C1390       C  0.81682301  0.08801838  0.01427132     0.08210
C1391       C  0.83768256  0.09277101  0.01079839    -0.04890
H1392       H  0.79096761  0.11016784  0.01730270     0.08880
H1393       H  0.85018721  0.08188656  0.00844199     0.10080
Cu1394     Cu  0.81307160  0.15237385  0.01432746     0.44170
Cu1395     Cu  0.86637613  0.13270041  0.00552227     0.41990
Cu1396     Cu  0.84674217  0.18583964  0.99506019     0.43880
N1397       N  0.80390501  0.18203026  0.00858259    -0.33540
N1398       N  0.81708834  0.19514085  0.00029304    -0.27800
C1399       C  0.80781432  0.21352147  0.99751364    -0.03900
C1400       C  0.78774293  0.21159945  0.00449159     0.08320
C1401       C  0.78563845  0.19145984  0.01134249     0.02110
H1402       H  0.81511824  0.22716075  0.99107323     0.09770
H1403       H  0.77196892  0.18425139  0.01778345     0.08840
N1404       N  0.87713873  0.17754584  0.99640052    -0.34990
N1405       N  0.88534431  0.15913585  0.00015046    -0.27170
C1406       C  0.90623048  0.16148244  0.00036869    -0.02410
C1407       C  0.91096031  0.18231526  0.99647046     0.06200
C1408       C  0.89197410  0.19173997  0.99442519     0.04290
H1409       H  0.91709904  0.14904519  0.00316613     0.09400
H1410       H  0.88884708  0.20807180  0.99239222     0.08230
N1411       N  0.88493361  0.24663350  0.08966123    -0.26160
N1412       N  0.87684652  0.24991161  0.07109153    -0.34020
C1413       C  0.89175891  0.25210151  0.05703946     0.02180
C1414       C  0.91066474  0.25079901  0.06672523     0.08210
C1415       C  0.90583810  0.24701680  0.08756628    -0.04890
H1416       H  0.88873523  0.25387938  0.04064412     0.08880
H1417       H  0.91664206  0.24476309  0.10018243     0.10080
Cu1418     Cu  0.84666056  0.25098651  0.06223669     0.44170
Cu1419     Cu  0.86587495  0.24113034  0.11595116     0.41990
Cu1420     Cu  0.81271335  0.23320689  0.09536771     0.43880
N1421       N  0.81706306  0.24650485  0.05257516    -0.33540
N1422       N  0.80360803  0.23881430  0.06575381    -0.27800
C1423       C  0.78528608  0.23650116  0.05634012    -0.03900
C1424       C  0.78765502  0.24301921  0.03611681     0.08320
C1425       C  0.80793556  0.24932844  0.03411958     0.02110
H1426       H  0.77142478  0.23054740  0.06360113     0.09770
H1427       H  0.81546317  0.25535431  0.02040423     0.08840
N1428       N  0.82075252  0.23341811  0.12582561    -0.34990
N1429       N  0.83913887  0.23601791  0.13441794    -0.27170
C1430       C  0.83648117  0.23568440  0.15531511    -0.02410
C1431       C  0.81543607  0.23273578  0.15962915     0.06200
C1432       C  0.80626859  0.23177695  0.14038728     0.04290
H1433       H  0.84885244  0.23761130  0.16644333     0.09400
H1434       H  0.78997538  0.23089941  0.13682340     0.08230
N1435       N  0.62721671  0.32716266  0.00902481    -0.26160
N1436       N  0.63514585  0.30875746  0.01339905    -0.34020
C1437       C  0.62008990  0.29487513  0.01577837     0.02180
C1438       C  0.60129143  0.30453512  0.01332045     0.08210
C1439       C  0.60631101  0.32513329  0.00876396    -0.04890
H1440       H  0.62291358  0.27856897  0.01841304     0.08880
H1441       H  0.59562829  0.33762794  0.00553102     0.10080
Cu1442     Cu  0.66534774  0.29982448  0.01506951     0.44170
Cu1443     Cu  0.64633594  0.35327241  0.00307308     0.41990
Cu1444     Cu  0.69909441  0.33254971  0.99536647     0.43880
N1445       N  0.69485483  0.29005404  0.00986230    -0.33540
N1446       N  0.70809313  0.30301141  0.00143688    -0.27800
C1447       C  0.72630875  0.29350987  0.99873204    -0.03900
C1448       C  0.72411835  0.27346021  0.00574379     0.08320
C1449       C  0.70404051  0.27164162  0.01274844     0.02110
H1450       H  0.73999421  0.30060882  0.99219953     0.09770
H1451       H  0.69668649  0.25806656  0.01926642     0.08840
N1452       N  0.69141519  0.36308020  0.99552798    -0.34990
N1453       N  0.67306646  0.37173257  0.99808418    -0.27170
C1454       C  0.67582062  0.39259722  0.99794644    -0.02410
C1455       C  0.69691132  0.39685097  0.99519468     0.06200
C1456       C  0.70598820  0.37757501  0.99411666     0.04290
H1457       H  0.66348342  0.40373747  0.99992834     0.09400
H1458       H  0.72226573  0.37392487  0.99338243     0.08230
N1459       N  0.76376747  0.37063866  0.08894953    -0.26160
N1460       N  0.76986087  0.36255745  0.07110133    -0.34020
C1461       C  0.77272567  0.37763434  0.05716285     0.02180
C1462       C  0.76846256  0.39648717  0.06631804     0.08210
C1463       C  0.76266717  0.39148227  0.08658106    -0.04890
H1464       H  0.77647373  0.37480390  0.04106153     0.08880
H1465       H  0.75771826  0.40211950  0.09856666     0.10080
Cu1466     Cu  0.77103408  0.33169109  0.06346758     0.44170
Cu1467     Cu  0.75600619  0.35183526  0.11465658     0.41990
Cu1468     Cu  0.74082520  0.30087727  0.09440929     0.43880
N1469       N  0.76220245  0.30265617  0.05399572    -0.33540
N1470       N  0.74957839  0.29133780  0.06536895    -0.27800
C1471       C  0.74533109  0.27360176  0.05533907    -0.03900
C1472       C  0.75587455  0.27398860  0.03674198     0.08320
C1473       C  0.76642441  0.29256664  0.03627828     0.02110
H1474       H  0.73557775  0.26131701  0.06122453     0.09770
H1475       H  0.77617047  0.29839653  0.02395136     0.08840
N1476       N  0.74214995  0.30836080  0.12531468    -0.34990
N1477       N  0.74825160  0.32615198  0.13347555    -0.27170
C1478       C  0.74939478  0.32368097  0.15433075    -0.02410
C1479       C  0.74363512  0.30339502  0.15925041     0.06200
C1480       C  0.73936249  0.29435039  0.14032788     0.04290
H1481       H  0.75435544  0.33560865  0.16502544     0.09400
H1482       H  0.73566770  0.27827222  0.13738168     0.08230
C1483       C  0.73356862  0.23660250  0.26482246     0.03420
C1484       C  0.73292349  0.25197689  0.24908341     0.03420
C1485       C  0.74816260  0.25222252  0.23324269     0.03420
C1486       C  0.76402210  0.23702505  0.23316927     0.03420
C1487       C  0.76452376  0.22147432  0.24870513     0.03420
C1488       C  0.74929744  0.22127916  0.26452871     0.03420
C1489       C  0.75700034  0.97713748  0.23938245     0.03420
C1490       C  0.77196025  0.99287476  0.23943682     0.03420
C1491       C  0.77164071  0.00818251  0.25489558     0.03420
C1492       C  0.75629042  0.00777800  0.27026237     0.03420
C1493       C  0.74128972  0.99207926  0.27023688     0.03420
C1494       C  0.74169407  0.97675771  0.25479614     0.03420
N1495       N  0.62760633  0.90925596  0.24955620    -0.26160
N1496       N  0.63646864  0.92756821  0.24729078    -0.34020
C1497       C  0.62226310  0.94238969  0.24591760     0.02180
C1498       C  0.60288982  0.93360205  0.24650778     0.08210
C1499       C  0.60680153  0.91234138  0.24913608    -0.04890
H1500       H  0.62622291  0.95863164  0.24527860     0.08880
H1501       H  0.59546291  0.90011641  0.25066880     0.10080
Cu1502     Cu  0.66687301  0.93506061  0.24633125     0.44170
Cu1503     Cu  0.64604897  0.88226729  0.25425200     0.41990
Cu1504     Cu  0.70030102  0.90126623  0.26301285     0.43880
N1505       N  0.69647653  0.94429652  0.25079220    -0.33540
N1506       N  0.70992150  0.93084636  0.25798898    -0.27800
C1507       C  0.72829261  0.94014268  0.26045955    -0.03900
C1508       C  0.72589537  0.96054887  0.25454540     0.08320
C1509       C  0.70558720  0.96278576  0.24848739     0.02110
H1510       H  0.74216779  0.93270685  0.26616882     0.09770
H1511       H  0.69801495  0.97670387  0.24302658     0.08840
N1512       N  0.69099021  0.87113942  0.26287041    -0.34990
N1513       N  0.67239724  0.86313386  0.25972504    -0.27170
C1514       C  0.67439102  0.84216741  0.26029206    -0.02410
C1515       C  0.69514641  0.83723965  0.26411018     0.06200
C1516       C  0.70490182  0.85611984  0.26528120     0.04290
H1517       H  0.66177466  0.83137536  0.25808711     0.09400
H1518       H  0.72127687  0.85900982  0.26700652     0.08230
N1519       N  0.74989262  0.90867586  0.12604799    -0.26160
N1520       N  0.74486849  0.92670523  0.13441604    -0.34020
C1521       C  0.74268575  0.94100070  0.11962288     0.02180
C1522       C  0.74598770  0.93197360  0.10051072     0.08210
C1523       C  0.75073399  0.91131074  0.10516769    -0.04890
H1524       H  0.73997497  0.95719457  0.12292731     0.08880
H1525       H  0.75474619  0.89920783  0.09427838     0.10080
Cu1526     Cu  0.74339237  0.93435127  0.16518928     0.44170
Cu1527     Cu  0.75666367  0.88249130  0.14478778     0.41990
Cu1528     Cu  0.77076576  0.90310118  0.19644786     0.43880
N1529       N  0.75140601  0.94411176  0.19428222    -0.33540
N1530       N  0.76311678  0.93231032  0.20609164    -0.27800
C1531       C  0.76704011  0.94216612  0.22400246    -0.03900
C1532       C  0.75727085  0.96115786  0.22315027     0.08320
C1533       C  0.74746942  0.96199138  0.20415556     0.02110
H1534       H  0.77598884  0.93589240  0.23671721     0.09770
H1535       H  0.73833339  0.97460243  0.19796486     0.08840
N1536       N  0.76872585  0.87232412  0.18903068    -0.34990
N1537       N  0.76343800  0.86389844  0.17108976    -0.27170
C1538       C  0.76228923  0.84307710  0.17390472    -0.02410
C1539       C  0.76708808  0.83850931  0.19459980     0.06200
C1540       C  0.77075217  0.85763068  0.20345026     0.04290
H1541       H  0.75801434  0.83217698  0.16190128     0.09400
H1542       H  0.77358687  0.86104871  0.21961123     0.08230
N1543       N  0.75031065  0.12177262  0.33879448    -0.26160
N1544       N  0.74741615  0.11343706  0.32026890    -0.34020
C1545       C  0.74557155  0.12820981  0.30598334     0.02180
C1546       C  0.74669428  0.14729032  0.31545516     0.08210
C1547       C  0.74997638  0.14268479  0.33643730    -0.04890
H1548       H  0.74430803  0.12492563  0.28959773     0.08880
H1549       H  0.75202757  0.15363510  0.34897850     0.10080
Cu1550     Cu  0.74672560  0.08307796  0.31174310     0.44170
Cu1551     Cu  0.75553356  0.10310242  0.36541026     0.41990
Cu1552     Cu  0.76410709  0.04962741  0.34553274     0.43880
N1553       N  0.75181463  0.05340346  0.30242607    -0.33540
N1554       N  0.75935928  0.04011651  0.31588208    -0.27800
C1555       C  0.76205661  0.02169258  0.30668016    -0.03900
C1556       C  0.75589129  0.02381760  0.28631673     0.08320
C1557       C  0.74948950  0.04407486  0.28399783     0.02110
H1558       H  0.76800304  0.00793101  0.31418417     0.09770
H1559       H  0.74372929  0.05144767  0.27007417     0.08840
N1560       N  0.76302968  0.05803360  0.37588914    -0.34990
N1561       N  0.76041028  0.07656001  0.38424706    -0.27170
C1562       C  0.76055225  0.07413971  0.40517748    -0.02410
C1563       C  0.76335921  0.05308446  0.40976666     0.06200
C1564       C  0.76440164  0.04367825  0.39062616     0.04290
H1565       H  0.75865802  0.08669041  0.41613717     0.09400
H1566       H  0.76527411  0.02731968  0.38720693     0.08230
N1567       N  0.88576686  0.98974643  0.17067864    -0.26160
N1568       N  0.87756514  0.98757579  0.18935035    -0.34020
C1569       C  0.89236660  0.98556747  0.20354920     0.02180
C1570       C  0.91129623  0.98592217  0.19387719     0.08210
C1571       C  0.90665106  0.98890570  0.17286814    -0.04890
H1572       H  0.88930185  0.98444611  0.21999989     0.08880
H1573       H  0.91755846  0.99023986  0.16021384     0.10080
Cu1574     Cu  0.84734972  0.98746734  0.19792385     0.44170
Cu1575     Cu  0.86674000  0.99421982  0.14416695     0.41990
Cu1576     Cu  0.81278113  0.00200352  0.16367674     0.43880
N1577       N  0.81754676  0.99107049  0.20712700    -0.33540
N1578       N  0.80374214  0.99730237  0.19353817    -0.27800
C1579       C  0.78524672  0.99888336  0.20278558    -0.03900
C1580       C  0.78788405  0.99337513  0.22329673     0.08320
C1581       C  0.80850519  0.98849618  0.22564395     0.02110
H1582       H  0.77108630  0.00362311  0.19521107     0.09770
H1583       H  0.81629972  0.98349591  0.23962490     0.08840
N1584       N  0.82164383  0.00172859  0.13337395    -0.34990
N1585       N  0.84022815  0.99892391  0.12523988    -0.27170
C1586       C  0.83810294  0.99919538  0.10427718    -0.02410
C1587       C  0.81725006  0.00246068  0.09945987     0.06200
C1588       C  0.80757622  0.00363790  0.11840985     0.04290
H1589       H  0.85069902  0.99716086  0.09342366     0.09400
H1590       H  0.79118475  0.00503207  0.12138849     0.08230
N1591       N  0.83895459  0.12228314  0.24894561    -0.26160
N1592       N  0.82087197  0.11406960  0.24393200    -0.34020
C1593       C  0.80679019  0.12900594  0.24155047     0.02180
C1594       C  0.81602673  0.14796902  0.24482616     0.08210
C1595       C  0.83654460  0.14316289  0.24970352    -0.04890
H1596       H  0.79061261  0.12598755  0.23859153     0.08880
H1597       H  0.84871535  0.15396979  0.25365080     0.10080
Cu1598     Cu  0.81287766  0.08339767  0.24248197     0.44170
Cu1599     Cu  0.86517965  0.10363510  0.25547127     0.41990
Cu1600     Cu  0.84519553  0.05161159  0.26774588     0.43880
N1601       N  0.80368931  0.05393597  0.24971932    -0.33540
N1602       N  0.81603093  0.04187654  0.26057485    -0.27800
C1603       C  0.80662307  0.02370050  0.26415812    -0.03900
C1604       C  0.78736258  0.02459638  0.25502045     0.08320
C1605       C  0.78587447  0.04393315  0.24599413     0.02110
H1606       H  0.81335642  0.01080893  0.27249255     0.09770
H1607       H  0.77286984  0.05026541  0.23754841     0.08840
N1608       N  0.87578444  0.05933732  0.26627822    -0.34990
N1609       N  0.88407663  0.07751706  0.26176428    -0.27170
C1610       C  0.90492016  0.07502588  0.26117893    -0.02410
C1611       C  0.90959634  0.05428936  0.26557481     0.06200
C1612       C  0.89055948  0.04507759  0.26834375     0.04290
H1613       H  0.91577450  0.08728461  0.25766075     0.09400
H1614       H  0.88731186  0.02882332  0.27074030     0.08230
N1615       N  0.62801697  0.00124742  0.33769600    -0.26160
N1616       N  0.63619489  0.00652478  0.31962707    -0.34020
C1617       C  0.62124400  0.00955094  0.30560372     0.02180
C1618       C  0.60232119  0.00617530  0.31482316     0.08210
C1619       C  0.60715333  0.00073247  0.33528389    -0.04890
H1620       H  0.62413335  0.01292590  0.28942533     0.08880
H1621       H  0.59634318  0.99655271  0.34738968     0.10080
Cu1622     Cu  0.66693091  0.00666253  0.31188902     0.44170
Cu1623     Cu  0.64697429  0.99437014  0.36390102     0.41990
Cu1624     Cu  0.69900596  0.98068468  0.34509479     0.43880
N1625       N  0.69610116  0.99813978  0.30291349    -0.33540
N1626       N  0.70812074  0.98728877  0.31534642    -0.27800
C1627       C  0.72604176  0.98319987  0.30564980    -0.03900
C1628       C  0.72499105  0.99192551  0.28613186     0.08320
C1629       C  0.70587376  0.00131093  0.28482500     0.02110
H1630       H  0.73892721  0.97490400  0.31240110     0.09770
H1631       H  0.69957655  0.00978019  0.27179101     0.08840
N1632       N  0.69082861  0.98228943  0.37582195    -0.34990
N1633       N  0.67267657  0.98775771  0.38357467    -0.27170
C1634       C  0.67467744  0.98869789  0.40454300    -0.02410
C1635       C  0.69498334  0.98338374  0.40991500     0.06200
C1636       C  0.70452835  0.97966597  0.39114519     0.04290
H1637       H  0.66237147  0.99301052  0.41506064     0.09400
H1638       H  0.72068162  0.97618444  0.38857327     0.08230
C1639       C  0.76249451  0.97164811  0.51540922     0.03420
C1640       C  0.77759286  0.98767282  0.51502311     0.03420
C1641       C  0.77640430  0.00352448  0.49968402     0.03420
C1642       C  0.76059220  0.00279963  0.48434186     0.03420
C1643       C  0.74565255  0.98666387  0.48453859     0.03420
C1644       C  0.74650350  0.97124397  0.50022593     0.03420
C1645       C  0.75740087  0.50535475  0.77220202     0.03420
C1646       C  0.74240032  0.48959382  0.77283346     0.03420
C1647       C  0.74207965  0.47417825  0.75747258     0.03420
C1648       C  0.75649303  0.47479784  0.74117446     0.03420
C1649       C  0.77177818  0.49035273  0.74078055     0.03420
C1650       C  0.77234796  0.50552289  0.75641118     0.03420
N1651       N  0.62829847  0.40838619  0.74862068    -0.26160
N1652       N  0.63695039  0.42636426  0.74414333    -0.34020
C1653       C  0.62246508  0.44099123  0.74236126     0.02180
C1654       C  0.60319814  0.43217552  0.74528859     0.08210
C1655       C  0.60753069  0.41128702  0.74941769    -0.04890
H1656       H  0.62613286  0.45718752  0.74028733     0.08880
H1657       H  0.59653511  0.39921617  0.75310623     0.10080
Cu1658     Cu  0.66792772  0.43258818  0.74329505     0.44170
Cu1659     Cu  0.64711403  0.38243504  0.75536755     0.41990
Cu1660     Cu  0.69555066  0.40346929  0.77824478     0.43880
N1661       N  0.69688776  0.44137265  0.75237522    -0.33540
N1662       N  0.70698309  0.43115616  0.76691230    -0.27800
C1663       C  0.72493108  0.44094885  0.77079727    -0.03900
C1664       C  0.72593797  0.45807487  0.75792801     0.08320
C1665       C  0.70792343  0.45797415  0.74651506     0.02110
H1666       H  0.73636317  0.43596845  0.78199243     0.09770
H1667       H  0.70297374  0.46935610  0.73523867     0.08840
N1668       N  0.68868875  0.37238111  0.77486908    -0.34990
N1669       N  0.67286233  0.36438936  0.76462031    -0.27170
C1670       C  0.67719151  0.34423347  0.76064637    -0.02410
C1671       C  0.69667580  0.33937414  0.76882043     0.06200
C1672       C  0.70298210  0.35772998  0.77808064     0.04290
H1673       H  0.66734774  0.33428409  0.75145604     0.09400
H1674       H  0.71738410  0.36097946  0.78580999     0.08230
N1675       N  0.83908224  0.50177832  0.62668773    -0.26160
N1676       N  0.82042792  0.50301383  0.63498726    -0.34020
C1677       C  0.80612692  0.50401171  0.62013798     0.02180
C1678       C  0.81575947  0.50386668  0.60110508     0.08210
C1679       C  0.83682922  0.50219357  0.60575857    -0.04890
H1680       H  0.78969774  0.50410459  0.62323026     0.08880
H1681       H  0.84948907  0.50133219  0.59482506     0.10080
Cu1682     Cu  0.81249317  0.50220231  0.66551785     0.44170
Cu1683     Cu  0.86570132  0.49869205  0.64559157     0.41990
Cu1684     Cu  0.84792684  0.48700648  0.69972319     0.43880
N1685       N  0.80389396  0.49582100  0.69518228    -0.33540
N1686       N  0.81765846  0.48906586  0.70858536    -0.27800
C1687       C  0.80838873  0.48564005  0.72689233    -0.03900
C1688       C  0.78768322  0.49037758  0.72453613     0.08320
C1689       C  0.78534260  0.49702021  0.70434570     0.02110
H1690       H  0.81614435  0.48057559  0.74087094     0.09770
H1691       H  0.77141268  0.50267564  0.69699433     0.08840
N1692       N  0.87798073  0.48991072  0.69025789    -0.34990
N1693       N  0.88531297  0.49423417  0.67155336    -0.27170
C1694       C  0.90626204  0.49460488  0.67283265    -0.02410
C1695       C  0.91190493  0.49007396  0.69321103     0.06200
C1696       C  0.89355326  0.48746669  0.70360253     0.04290
H1697       H  0.91655424  0.49737024  0.65989403     0.09400
H1698       H  0.89156266  0.48388887  0.71988208     0.08230
N1699       N  0.62766681  0.49620641  0.83978248    -0.26160
N1700       N  0.63570913  0.49917315  0.82112946    -0.34020
C1701       C  0.62066911  0.50132866  0.80712269     0.02180
C1702       C  0.60181407  0.50007522  0.81695394     0.08210
C1703       C  0.60675447  0.49655227  0.83778922    -0.04890
H1704       H  0.62346545  0.50311633  0.79067880     0.08880
H1705       H  0.59600242  0.49451488  0.85048255     0.10080
Cu1706     Cu  0.66617600  0.49938935  0.81258622     0.44170
Cu1707     Cu  0.64667469  0.49138883  0.86628173     0.41990
Cu1708     Cu  0.69930820  0.47970595  0.84718147     0.43880
N1709       N  0.69615679  0.49387041  0.80419544    -0.33540
N1710       N  0.70894118  0.48542830  0.81763580    -0.27800
C1711       C  0.72749124  0.48273060  0.80874609    -0.03900
C1712       C  0.72611222  0.48999397  0.78868253     0.08320
C1713       C  0.70604344  0.49683578  0.78614111     0.02110
H1714       H  0.74085884  0.47601943  0.81627975     0.09770
H1715       H  0.69914904  0.50324576  0.77226476     0.08840
N1716       N  0.69104308  0.48138839  0.87766067    -0.34990
N1717       N  0.67275603  0.48597634  0.88564010    -0.27170
C1718       C  0.67495155  0.48680654  0.90658427    -0.02410
C1719       C  0.69553939  0.48235290  0.91159167     0.06200
C1720       C  0.70502366  0.47931233  0.89272991     0.04290
H1721       H  0.66258970  0.49039023  0.91730970     0.09400
H1722       H  0.72127286  0.47655845  0.88989698     0.08230
N1723       N  0.75201974  0.40829192  0.62577505    -0.26160
N1724       N  0.74952222  0.42692447  0.63399178    -0.34020
C1725       C  0.74818147  0.44110909  0.61901572     0.02180
C1726       C  0.74945933  0.43135812  0.60008098     0.08210
C1727       C  0.75217366  0.41042999  0.60483795    -0.04890
H1728       H  0.74658151  0.45755095  0.62189573     0.08880
H1729       H  0.75376516  0.39775887  0.59396132     0.10080
Cu1730     Cu  0.74807267  0.43499329  0.66460537     0.44170
Cu1731     Cu  0.75503902  0.38157793  0.64449155     0.41990
Cu1732     Cu  0.76155995  0.39911721  0.69920340     0.43880
N1733       N  0.75192577  0.44310543  0.69497422    -0.33540
N1734       N  0.75798230  0.42911385  0.70850303    -0.27800
C1735       C  0.76048876  0.43808020  0.72711518    -0.03900
C1736       C  0.75586184  0.45885085  0.72490557     0.08320
C1737       C  0.75028341  0.46154996  0.70440741     0.02110
H1738       H  0.76533742  0.43014969  0.74108218     0.09770
H1739       H  0.74544980  0.47573492  0.69692002     0.08840
N1740       N  0.76066352  0.36904361  0.68942285    -0.34990
N1741       N  0.75819244  0.36173792  0.67037991    -0.27170
C1742       C  0.75850051  0.34073968  0.67144439    -0.02410
C1743       C  0.76152409  0.33506310  0.69208352     0.06200
C1744       C  0.76256729  0.35341775  0.70280861     0.04290
H1745       H  0.75716466  0.33046609  0.65824340     0.09400
H1746       H  0.76465603  0.35538111  0.71935067     0.08230
N1747       N  0.76158509  0.57595957  0.88487903    -0.26160
N1748       N  0.76267807  0.55721954  0.87669979    -0.34020
C1749       C  0.76395969  0.54296109  0.89154325     0.02180
C1750       C  0.76436547  0.55266712  0.91053336     0.08210
C1751       C  0.76252295  0.57379350  0.90582193    -0.04890
H1752       H  0.76409347  0.52650722  0.88841384     0.08880
H1753       H  0.76202705  0.58654297  0.91671496     0.10080
Cu1754     Cu  0.76265340  0.54902459  0.84638001     0.44170
Cu1755     Cu  0.75811117  0.60225156  0.86541841     0.41990
Cu1756     Cu  0.74992473  0.58309911  0.81047196     0.43880
N1757       N  0.75937968  0.53939817  0.81667219    -0.33540
N1758       N  0.75386801  0.55270561  0.80226639    -0.27800
C1759       C  0.75227635  0.54277708  0.78403528    -0.03900
C1760       C  0.75695844  0.52215412  0.78754909     0.08320
C1761       C  0.76149322  0.52050768  0.80835201     0.02110
H1762       H  0.74809223  0.54994592  0.76945929     0.09770
H1763       H  0.76603785  0.50674241  0.81677896     0.08840
N1764       N  0.75014594  0.61337570  0.82009027    -0.34990
N1765       N  0.75330601  0.62114868  0.83886993    -0.27170
C1766       C  0.75267215  0.64212087  0.83729878    -0.02410
C1767       C  0.74868436  0.64735525  0.81667440     0.06200
C1768       C  0.74745078  0.62869696  0.80646169     0.04290
H1769       H  0.75467726  0.65270683  0.85016194     0.09400
H1770       H  0.74512272  0.62628191  0.79001578     0.08230
N1771       N  0.88158215  0.57528241  0.76498716    -0.26160
N1772       N  0.87340604  0.55939913  0.77501374    -0.34020
C1773       C  0.88803773  0.54519081  0.77877906     0.02180
C1774       C  0.90659925  0.55170644  0.77018193     0.08210
C1775       C  0.90186224  0.57114678  0.76176732    -0.04890
H1776       H  0.88473264  0.53066376  0.78633433     0.08880
H1777       H  0.91201124  0.58100799  0.75280757     0.10080
Cu1778     Cu  0.84224522  0.55279601  0.77713887     0.44170
Cu1779     Cu  0.86336786  0.60050969  0.75465735     0.41990
Cu1780     Cu  0.81491961  0.57860022  0.73830924     0.43880
N1781       N  0.81513383  0.54110420  0.76488444    -0.33540
N1782       N  0.80585533  0.55006880  0.74900415    -0.27800
C1783       C  0.78945071  0.53866469  0.74326375    -0.03900
C1784       C  0.78847763  0.52168031  0.75622008     0.08320
C1785       C  0.80491331  0.52364138  0.76978577     0.02110
H1786       H  0.77870022  0.54276689  0.73108002     0.09770
H1787       H  0.80913977  0.51316394  0.78218721     0.08840
N1788       N  0.82030148  0.60992570  0.73978411    -0.34990
N1789       N  0.83756590  0.61878004  0.74612833    -0.27170
C1790       C  0.83405294  0.63941827  0.74777885    -0.02410
C1791       C  0.81342472  0.64364878  0.74237867     0.06200
C1792       C  0.80549298  0.62422514  0.73758821     0.04290
H1793       H  0.84554999  0.65027405  0.75321212     0.09400
H1794       H  0.78971643  0.62005414  0.73417735     0.08230
C1795       C  0.74725898  0.26456133  0.76057336     0.03420
C1796       C  0.74639100  0.24922383  0.77631827     0.03420
C1797       C  0.76149144  0.23325823  0.77699388     0.03420
C1798       C  0.77745841  0.23254627  0.76191477     0.03420
C1799       C  0.77815098  0.24764751  0.74594034     0.03420
C1800       C  0.76291112  0.26349976  0.74509165     0.03420
C1801       C  0.99581762  0.99859291  0.73444370     0.03420
C1802       C  0.01128606  0.98298693  0.73464974     0.03420
C1803       C  0.02661369  0.98284788  0.75043113     0.03420
C1804       C  0.02625814  0.99822351  0.76618855     0.03420
C1805       C  0.01068261  0.01373961  0.76611518     0.03420
C1806       C  0.99558853  0.01400853  0.75013502     0.03420
C1807       C  0.01983183  0.24260679  0.77023757     0.03420
C1808       C  0.00518166  0.22654695  0.76989225     0.03420
C1809       C  0.99081616  0.22532007  0.75361404     0.03420
C1810       C  0.99110716  0.24005113  0.73761104     0.03420
C1811       C  0.00541543  0.25645631  0.73820982     0.03420
C1812       C  0.01985642  0.25768020  0.75451768     0.03420
N1813       N  0.92242431  0.23256569  0.62767661    -0.26160
N1814       N  0.93833475  0.22239752  0.63562239    -0.34020
C1815       C  0.95272997  0.21955800  0.62098227     0.02180
C1816       C  0.94634815  0.22896377  0.60274882     0.08210
C1817       C  0.92677360  0.23683207  0.60758161    -0.04890
H1818       H  0.96726993  0.21200257  0.62410137     0.08880
H1819       H  0.91690207  0.24604225  0.59766757     0.10080
Cu1820     Cu  0.94514245  0.21868841  0.66668548     0.44170
Cu1821     Cu  0.89651758  0.24150557  0.64557336     0.41990
Cu1822     Cu  0.91729492  0.25352303  0.69557099     0.43880
N1823       N  0.95641030  0.23011734  0.69438723    -0.33540
N1824       N  0.94615795  0.24458231  0.70452688    -0.27800
C1825       C  0.95702593  0.25055320  0.72119520    -0.03900
C1826       C  0.97512389  0.23932699  0.72139374     0.08320
C1827       C  0.97434274  0.22641876  0.70427987     0.02110
H1828       H  0.95192889  0.26181498  0.73252421     0.09770
H1829       H  0.98590513  0.21533628  0.69937467     0.08840
N1830       N  0.88637783  0.25251781  0.68946553    -0.34990
N1831       N  0.87767692  0.24813112  0.67148236    -0.27170
C1832       C  0.85692511  0.24730693  0.67443843    -0.02410
C1833       C  0.85268104  0.25129243  0.69539086     0.06200
C1834       C  0.87197288  0.25415518  0.70417166     0.04290
H1835       H  0.84589440  0.24369851  0.66236156     0.09400
H1836       H  0.87574528  0.25609731  0.72036948     0.08230
N1837       N  0.00594191  0.11323760  0.84018325    -0.26160
N1838       N  0.00882190  0.12098505  0.82139232    -0.34020
C1839       C  0.01098832  0.10573155  0.80763390     0.02180
C1840       C  0.00989112  0.08702694  0.81777887     0.08210
C1841       C  0.00637406  0.09224550  0.83854052    -0.04890
H1842       H  0.01297132  0.10827362  0.79116528     0.08880
H1843       H  0.00458259  0.08164563  0.85142006     0.10080
Cu1844     Cu  0.00984141  0.15122853  0.81230897     0.44170
Cu1845     Cu  0.00158715  0.13288732  0.86625723     0.41990
Cu1846     Cu  0.99407385  0.18653515  0.84599223     0.43880
N1847       N  0.00672873  0.18121642  0.80292120    -0.33540
N1848       N  0.99999563  0.19516466  0.81615941    -0.27800
C1849       C  0.99868502  0.21361954  0.80667875    -0.03900
C1850       C  0.00495964  0.21087139  0.78639804     0.08320
C1851       C  0.00987750  0.19015496  0.78441551     0.02110
H1852       H  0.99338265  0.22779082  0.81389369     0.09770
H1853       H  0.01510149  0.18218643  0.77060749     0.08840
N1854       N  0.99455691  0.17825118  0.87651969    -0.34990
N1855       N  0.99743979  0.15973515  0.88487215    -0.27170
C1856       C  0.99777093  0.16216708  0.90579627    -0.02410
C1857       C  0.99483374  0.18315713  0.91039991     0.06200
C1858       C  0.99317492  0.19258863  0.89133224     0.04290
H1859       H  0.00003228  0.14968461  0.91676921     0.09400
H1860       H  0.99188884  0.20899197  0.88815432     0.08230
N1861       N  0.92131025  0.11352809  0.74660859    -0.26160
N1862       N  0.93916708  0.12198286  0.74137752    -0.34020
C1863       C  0.95366032  0.10739493  0.73963220     0.02180
C1864       C  0.94492982  0.08822467  0.74333952     0.08210
C1865       C  0.92420405  0.09274058  0.74788515    -0.04890
H1866       H  0.96975309  0.11103251  0.73713328     0.08880
H1867       H  0.91223217  0.08187393  0.75221795     0.10080
Cu1868     Cu  0.94632269  0.15268339  0.73944059     0.44170
Cu1869     Cu  0.89528987  0.13225331  0.75356235     0.41990
Cu1870     Cu  0.91550583  0.18462704  0.76668592     0.43880
N1871       N  0.95662135  0.18134837  0.74770771    -0.33540
N1872       N  0.94502371  0.19350984  0.75925854    -0.27800
C1873       C  0.95542950  0.21102676  0.76340888    -0.03900
C1874       C  0.97455152  0.20946005  0.75401173     0.08320
C1875       C  0.97488027  0.19052778  0.74413823     0.02110
H1876       H  0.94945049  0.22396753  0.77222801     0.09770
H1877       H  0.98736635  0.18393769  0.73512315     0.08840
N1878       N  0.88484136  0.17650325  0.76569444    -0.34990
N1879       N  0.87668095  0.15835445  0.76071026    -0.27170
C1880       C  0.85582083  0.16059496  0.76037210    -0.02410
C1881       C  0.85093072  0.18107926  0.76547592     0.06200
C1882       C  0.86985593  0.19047441  0.76845476     0.04290
H1883       H  0.84508006  0.14832536  0.75653260     0.09400
H1884       H  0.87279904  0.20669498  0.77144935     0.08230
N1885       N  0.08838154  0.25028405  0.88396058    -0.26160
N1886       N  0.07003550  0.25440309  0.87583470    -0.34020
C1887       C  0.05603744  0.25668082  0.89085607     0.02180
C1888       C  0.06556653  0.25435005  0.90982375     0.08210
C1889       C  0.08621265  0.25007367  0.90491053    -0.04890
H1890       H  0.03974302  0.25894781  0.88788448     0.08880
H1891       H  0.09863857  0.24691747  0.91569188     0.10080
Cu1892     Cu  0.06153488  0.25521318  0.84529121     0.44170
Cu1893     Cu  0.11461744  0.24419743  0.86507609     0.41990
Cu1894     Cu  0.09471810  0.23342339  0.81239448     0.43880
N1895       N  0.05221428  0.24854212  0.81574755    -0.33540
N1896       N  0.06510433  0.23914753  0.80307151    -0.27800
C1897       C  0.05565515  0.23556685  0.78490120    -0.03900
C1898       C  0.03575564  0.24310193  0.78647542     0.08320
C1899       C  0.03398101  0.25128719  0.80617940     0.02110
H1900       H  0.06273539  0.22822131  0.77159306     0.09770
H1901       H  0.02052744  0.25851286  0.81304570     0.08840
N1902       N  0.12524395  0.23441452  0.82042384    -0.34990
N1903       N  0.13352221  0.23824502  0.83879341    -0.27170
C1904       C  0.15439985  0.23824967  0.83644674    -0.02410
C1905       C  0.15908461  0.23415713  0.81562649     0.06200
C1906       C  0.14005206  0.23220289  0.80621594     0.04290
H1907       H  0.16528229  0.24108347  0.84887125     0.09400
H1908       H  0.13686889  0.23013529  0.78988483     0.08230
N1909       N  0.08795213  0.37176928  0.76169500    -0.26160
N1910       N  0.06960367  0.36379702  0.76613942    -0.34020
C1911       C  0.05575640  0.37897358  0.76855824     0.02180
C1912       C  0.06538956  0.39784018  0.76587870     0.08210
C1913       C  0.08591741  0.39272508  0.76130710    -0.04890
H1914       H  0.03948761  0.37624401  0.77131559     0.08880
H1915       H  0.09837356  0.40340016  0.75795112     0.10080
Cu1916     Cu  0.06109782  0.33314072  0.76726319     0.44170
Cu1917     Cu  0.11418395  0.35271057  0.75578467     0.41990
Cu1918     Cu  0.09454092  0.30015258  0.74520606     0.43880
N1919       N  0.05203735  0.30340913  0.76053130    -0.33540
N1920       N  0.06486212  0.29093213  0.75077343    -0.27800
C1921       C  0.05543136  0.27280573  0.74695619    -0.03900
C1922       C  0.03560475  0.27414100  0.75472839     0.08320
C1923       C  0.03392413  0.29364734  0.76342650     0.02110
H1924       H  0.06253356  0.25962229  0.73942566     0.09770
H1925       H  0.02058708  0.30026309  0.77108918     0.08840
N1926       N  0.12509966  0.30805196  0.74647829    -0.34990
N1927       N  0.13331369  0.32644868  0.75022159    -0.27170
C1928       C  0.15420602  0.32413918  0.75032419    -0.02410
C1929       C  0.15896554  0.30331606  0.74637323     0.06200
C1930       C  0.13995418  0.29386539  0.74441660     0.04290
H1931       H  0.16505835  0.33659939  0.75306409     0.09400
H1932       H  0.13683042  0.27753788  0.74235279     0.08230
N1933       N  0.00187350  0.32785259  0.62516610    -0.26160
N1934       N  0.00386596  0.30856113  0.63195949    -0.34020
C1935       C  0.00599156  0.29563482  0.61595797     0.02180
C1936       C  0.00558437  0.30690813  0.59791609     0.08210
C1937       C  0.00276204  0.32739508  0.60413590    -0.04890
H1938       H  0.00828673  0.27908557  0.61745043     0.08880
H1939       H  0.00223965  0.34092808  0.59423347     0.10080
Cu1940     Cu  0.00530862  0.29782945  0.66176059     0.44170
Cu1941     Cu  0.99921823  0.35350859  0.64552219     0.41990
Cu1942     Cu  0.99738318  0.33278769  0.69864836     0.43880
N1943       N  0.00477735  0.28863729  0.69205696    -0.33540
N1944       N  0.00100997  0.30251504  0.70648968    -0.27800
C1945       C  0.00078855  0.29334736  0.72511415    -0.03900
C1946       C  0.00488168  0.27258326  0.72211288     0.08320
C1947       C  0.00721562  0.26998964  0.70094781     0.02110
H1948       H  0.99761458  0.30115815  0.73960213     0.09770
H1949       H  0.01027986  0.25571969  0.69268744     0.08840
N1950       N  0.99750273  0.36339882  0.69122911    -0.34990
N1951       N  0.99774139  0.37200563  0.67262240    -0.27170
C1952       C  0.99730886  0.39287117  0.67526083    -0.02410
C1953       C  0.99670500  0.39714440  0.69653697     0.06200
C1954       C  0.99724289  0.37796609  0.70585991     0.04290
H1955       H  0.99720880  0.40401258  0.66271690     0.09400
H1956       H  0.99778026  0.37454330  0.72226408     0.08230
C1957       C  0.26402191  0.23653380  0.73330453     0.03420
C1958       C  0.24842539  0.25201731  0.73306385     0.03420
C1959       C  0.23275966  0.25198099  0.74852447     0.03420
C1960       C  0.23271648  0.23642140  0.76414701     0.03420
C1961       C  0.24829925  0.22088495  0.76428240     0.03420
C1962       C  0.26392798  0.22096617  0.74883524     0.03420
C1963       C  0.27045956  0.00760620  0.75684798     0.03420
C1964       C  0.25505454  0.00793318  0.77214365     0.03420
C1965       C  0.23929425  0.99296910  0.77190033     0.03420
C1966       C  0.23921478  0.97739294  0.75668464     0.03420
C1967       C  0.25448255  0.97728684  0.74122527     0.03420
C1968       C  0.27009190  0.99239379  0.74129540     0.03420
N1969       N  0.25226774  0.90909408  0.62662332    -0.26160
N1970       N  0.24836622  0.92754495  0.63473678    -0.34020
C1971       C  0.24575415  0.94149327  0.61973340     0.02180
C1972       C  0.24760324  0.93185977  0.60080932     0.08210
C1973       C  0.25203888  0.91119709  0.60564847    -0.04890
H1974       H  0.24317678  0.95780117  0.62263479     0.08880
H1975       H  0.25471745  0.89869100  0.59479413     0.10080
Cu1976     Cu  0.24701542  0.93643930  0.66507806     0.44170
Cu1977     Cu  0.25784559  0.88265598  0.64553199     0.41990
Cu1978     Cu  0.26228239  0.90219612  0.69931489     0.43880
N1979       N  0.25084148  0.94551111  0.69512745    -0.33540
N1980       N  0.25744659  0.93181849  0.70867531    -0.27800
C1981       C  0.25966793  0.94084805  0.72725404    -0.03900
C1982       C  0.25414910  0.96135636  0.72502656     0.08320
C1983       C  0.24863076  0.96393660  0.70449520     0.02110
H1984       H  0.26498270  0.93314326  0.74117568     0.09770
H1985       H  0.24361263  0.97804637  0.69695727     0.08840
N1986       N  0.26321161  0.87192177  0.69085403    -0.34990
N1987       N  0.26205671  0.86363407  0.67213382    -0.27170
C1988       C  0.26324302  0.84273114  0.67442672    -0.02410
C1989       C  0.26528198  0.83813493  0.69559189     0.06200
C1990       C  0.26477187  0.85717084  0.70518278     0.04290
H1991       H  0.26262562  0.83178129  0.66173338     0.09400
H1992       H  0.26478624  0.86040408  0.72162886     0.08230
N1993       N  0.33772168  0.00226180  0.62789291    -0.26160
N1994       N  0.31971285  0.00671533  0.63652499    -0.34020
C1995       C  0.30519455  0.00866950  0.62196521     0.02180
C1996       C  0.31401007  0.00588436  0.60268161     0.08210
C1997       C  0.33483571  0.00166837  0.60704020    -0.04890
H1998       H  0.28903370  0.01073718  0.62561438     0.08880
H1999       H  0.34689192  0.99807708  0.59598727     0.10080
Cu2000     Cu  0.31223719  0.00764288  0.66727650     0.44170
Cu2001     Cu  0.36422115  0.99557425  0.64621560     0.41990
Cu2002     Cu  0.34465119  0.98261106  0.69864843     0.43880
N2003       N  0.30269575  0.99921791  0.69623324    -0.33540
N2004       N  0.31513012  0.98841024  0.70822610    -0.27800
C2005       C  0.30545653  0.98397378  0.72609119    -0.03900
C2006       C  0.28590827  0.99246531  0.72498861     0.08320
C2007       C  0.28456973  0.00206636  0.70592277     0.02110
H2008       H  0.31223796  0.97564145  0.73896689     0.09770
H2009       H  0.27151913  0.01045806  0.69962120     0.08840
N2010       N  0.37513423  0.98433303  0.69050064    -0.34990
N2011       N  0.38326933  0.98880514  0.67221836    -0.27170
C2012       C  0.40415298  0.98899266  0.67447533    -0.02410
C2013       C  0.40903246  0.98442247  0.69516683     0.06200
C2014       C  0.39004273  0.98198360  0.70458981     0.04290
H2015       H  0.41490041  0.99233743  0.66206718     0.09400
H2016       H  0.38689095  0.97955654  0.72086356     0.08230
N2017       N  0.12625844  0.90831965  0.75107422    -0.26160
N2018       N  0.13452066  0.92667204  0.74728578    -0.34020
C2019       C  0.11973492  0.94096103  0.74546220     0.02180
C2020       C  0.10067103  0.93163190  0.74758594     0.08210
C2021       C  0.10537614  0.91075076  0.75140113    -0.04890
H2022       H  0.12297905  0.95727724  0.74353997     0.08880
H2023       H  0.09449842  0.89834356  0.75426763     0.10080
Cu2024     Cu  0.16511167  0.93432342  0.74597958     0.44170
Cu2025     Cu  0.14552436  0.88212622  0.75660359     0.41990
Cu2026     Cu  0.19787227  0.90227476  0.77055255     0.43880
N2027       N  0.19447360  0.94386696  0.75246103    -0.33540
N2028       N  0.20698433  0.93182868  0.76314869    -0.27800
C2029       C  0.22493546  0.94179743  0.76633916    -0.03900
C2030       C  0.22336410  0.96106123  0.75711136     0.08320
C2031       C  0.20391174  0.96192862  0.74840144     0.02110
H2032       H  0.23811900  0.93546868  0.77449910     0.09770
H2033       H  0.19707215  0.97472477  0.74000367     0.08840
N2034       N  0.18990896  0.87152829  0.76844159    -0.34990
N2035       N  0.17194486  0.86339273  0.76284053    -0.27170
C2036       C  0.17450740  0.84253828  0.76146268    -0.02410
C2037       C  0.19495937  0.83764810  0.76660103     0.06200
C2038       C  0.20400746  0.85655224  0.77068739     0.04290
H2039       H  0.16248311  0.83178519  0.75695442     0.09400
H2040       H  0.22011092  0.85949877  0.77411662     0.08230
N2041       N  0.24990203  0.12179793  0.83945085    -0.26160
N2042       N  0.24456727  0.11335691  0.82153645    -0.34020
C2043       C  0.24217948  0.12808051  0.80718974     0.02180
C2044       C  0.24570172  0.14719552  0.81610409     0.08210
C2045       C  0.25079195  0.14263817  0.83671155    -0.04890
H2046       H  0.23904910  0.12477023  0.79105340     0.08880
H2047       H  0.25497874  0.15357749  0.84871517     0.10080
Cu2048     Cu  0.24273540  0.08249570  0.81442842     0.44170
Cu2049     Cu  0.25677180  0.10312292  0.86561270     0.41990
Cu2050     Cu  0.27104935  0.05123040  0.84569455     0.43880
N2051       N  0.25016735  0.05310885  0.80517681    -0.33540
N2052       N  0.26223108  0.04141196  0.81675332    -0.27800
C2053       C  0.26581301  0.02342314  0.80691857    -0.03900
C2054       C  0.25535782  0.02405483  0.78825558     0.08320
C2055       C  0.24561501  0.04305297  0.78753115     0.02110
H2056       H  0.27509150  0.01083898  0.81294712     0.09770
H2057       H  0.23626382  0.04920926  0.77505342     0.08840
N2058       N  0.26965378  0.05923797  0.87648076    -0.34990
N2059       N  0.26385551  0.07719597  0.88453447    -0.27170
C2060       C  0.26269753  0.07483564  0.90542067    -0.02410
C2061       C  0.26817244  0.05448799  0.91044000     0.06200
C2062       C  0.27225158  0.04528277  0.89157417     0.04290
H2063       H  0.25800606  0.08689779  0.91608767     0.09400
H2064       H  0.27578763  0.02914531  0.88874485     0.08230
N2065       N  0.17101430  0.98895453  0.88603426    -0.26160
N2066       N  0.18953700  0.98871477  0.87739416    -0.34020
C2067       C  0.20416932  0.98763276  0.89180345     0.02180
C2068       C  0.19504505  0.98634573  0.91099190     0.08210
C2069       C  0.17377862  0.98756177  0.90689251    -0.04890
H2070       H  0.22047331  0.98817735  0.88819792     0.08880
H2071       H  0.16135245  0.98731238  0.91812351     0.10080
Cu2072     Cu  0.19749166  0.98903115  0.84711855     0.44170
Cu2073     Cu  0.14416414  0.99200991  0.86728130     0.41990
Cu2074     Cu  0.16313466  0.00000205  0.81237190     0.43880
N2075       N  0.20681817  0.99178069  0.81736148    -0.33540
N2076       N  0.19308543  0.99676138  0.80322569    -0.27800
C2077       C  0.20236956  0.99803659  0.78468404    -0.03900
C2078       C  0.22303431  0.99351365  0.78768216     0.08320
C2079       C  0.22543014  0.98963822  0.80855513     0.02110
H2080       H  0.19471964  0.00188386  0.77026802     0.09770
H2081       H  0.23949250  0.98555131  0.81667501     0.08840
N2082       N  0.13311075  0.99902129  0.82191009    -0.34990
N2083       N  0.12519933  0.99634774  0.84067528    -0.27170
C2084       C  0.10427850  0.99678048  0.83878590    -0.02410
C2085       C  0.09927671  0.00002577  0.81792216     0.06200
C2086       C  0.11804120  0.00096107  0.80798263     0.04290
H2087       H  0.09357671  0.99504755  0.85156969     0.09400
H2088       H  0.12081365  0.00248254  0.79151073     0.08230
N2089       N  0.33831598  0.12159643  0.74825785    -0.26160
N2090       N  0.31974791  0.11331833  0.74590347    -0.34020
C2091       C  0.30552034  0.12814565  0.74407655     0.02180
C2092       C  0.31506192  0.14719245  0.74483931     0.08210
C2093       C  0.33602960  0.14252469  0.74774854    -0.04890
H2094       H  0.28913189  0.12500431  0.74312622     0.08880
H2095       H  0.34859533  0.15346409  0.74944884     0.10080
Cu2096     Cu  0.31143833  0.08289681  0.74645579     0.44170
Cu2097     Cu  0.36489191  0.10266615  0.75292852     0.41990
Cu2098     Cu  0.34615710  0.04889930  0.76275629     0.43880
N2099       N  0.30255513  0.05321037  0.75224383    -0.33540
N2100       N  0.31620471  0.03979458  0.75917431    -0.27800
C2101       C  0.30701576  0.02138686  0.76205719    -0.03900
C2102       C  0.28649440  0.02365887  0.75665840     0.08320
C2103       C  0.28407387  0.04398064  0.75052198     0.02110
H2104       H  0.31467107  0.00749344  0.76746061     0.09770
H2105       H  0.27007202  0.05142086  0.74514111     0.08840
N2106       N  0.37637589  0.05781453  0.76144819    -0.34990
N2107       N  0.38424462  0.07643844  0.75800111    -0.27170
C2108       C  0.40517714  0.07454934  0.75814514    -0.02410
C2109       C  0.41026411  0.05381339  0.76202145     0.06200
C2110       C  0.39148291  0.04394169  0.76364296     0.04290
H2111       H  0.41584319  0.08724727  0.75575557     0.09400
H2112       H  0.38873409  0.02754697  0.76574991     0.08230
C2113       C  0.48391162  0.00265425  0.76084874     0.03420
C2114       C  0.49967010  0.00279269  0.77620755     0.03420
C2115       C  0.51523797  0.98729320  0.77601525     0.03420
C2116       C  0.51505204  0.97164555  0.76056182     0.03420
C2117       C  0.49920445  0.97133880  0.74531905     0.03420
C2118       C  0.48363580  0.98688917  0.74544334     0.03420
C2119       C  0.49098823  0.72735400  0.75865499     0.03420
C2120       C  0.50663796  0.72797475  0.77376515     0.03420
C2121       C  0.52107188  0.74421108  0.77375005     0.03420
C2122       C  0.52030251  0.75938870  0.75814087     0.03420
C2123       C  0.50461483  0.75881482  0.74306568     0.03420
C2124       C  0.48985477  0.74289612  0.74344725     0.03420
N2125       N  0.50375138  0.65732079  0.88642097    -0.26160
N2126       N  0.49875361  0.67573241  0.87884211    -0.34020
C2127       C  0.49573086  0.68914981  0.89429434     0.02180
C2128       C  0.49875613  0.67914308  0.91286909     0.08210
C2129       C  0.50407774  0.65888894  0.90742791    -0.04890
H2130       H  0.49211571  0.70537024  0.89204216     0.08880
H2131       H  0.50772946  0.64630263  0.91789972     0.10080
Cu2132     Cu  0.49769371  0.68499159  0.84852983     0.44170
Cu2133     Cu  0.50977906  0.63165596  0.86674913     0.41990
Cu2134     Cu  0.51908695  0.65249000  0.81419638     0.43880
N2135       N  0.50385419  0.69496043  0.81909011    -0.33540
N2136       N  0.51290276  0.68237062  0.80584483    -0.27800
C2137       C  0.51550382  0.69213544  0.78766780    -0.03900
C2138       C  0.50765820  0.71189673  0.78983223     0.08320
C2139       C  0.50045469  0.71332247  0.80992534     0.02110
H2140       H  0.52225727  0.68530236  0.77392477     0.09770
H2141       H  0.49318047  0.72654301  0.81722753     0.08840
N2142       N  0.51786584  0.62173138  0.82159331    -0.34990
N2143       N  0.51447969  0.61318916  0.83993175    -0.27170
C2144       C  0.51380913  0.59233262  0.83722817    -0.02410
C2145       C  0.51698407  0.58790789  0.81620355     0.06200
C2146       C  0.51915487  0.60708956  0.80704927     0.04290
H2147       H  0.51110814  0.58129272  0.84956005     0.09400
H2148       H  0.52069412  0.61050924  0.79070944     0.08230
N2149       N  0.42382606  0.73254102  0.62895230    -0.26160
N2150       N  0.44191175  0.72873380  0.63772132    -0.34020
C2151       C  0.45652543  0.72689004  0.62323374     0.02180
C2152       C  0.44768987  0.72907791  0.60386232     0.08210
C2153       C  0.42674820  0.73283359  0.60809647    -0.04890
H2154       H  0.47271963  0.72521951  0.62695733     0.08880
H2155       H  0.41462474  0.73586550  0.59694947     0.10080
Cu2156     Cu  0.44893021  0.72821495  0.66862695     0.44170
Cu2157     Cu  0.39719899  0.73879058  0.64722075     0.41990
Cu2158     Cu  0.41592079  0.75383848  0.69962791     0.43880
N2159       N  0.45757105  0.73594856  0.69810120    -0.33540
N2160       N  0.44503134  0.74682857  0.70993676    -0.27800
C2161       C  0.45439076  0.75087941  0.72808172    -0.03900
C2162       C  0.47379984  0.74201312  0.72735912     0.08320
C2163       C  0.47543749  0.73271467  0.70816944     0.02110
H2164       H  0.44761847  0.75953016  0.74074997     0.09770
H2165       H  0.48865282  0.72456207  0.70190121     0.08840
N2166       N  0.38552413  0.75213680  0.69085913    -0.34990
N2167       N  0.37780390  0.74622542  0.67277679    -0.27170
C2168       C  0.35691045  0.74544085  0.67473765    -0.02410
C2169       C  0.35159188  0.75128779  0.69494421     0.06200
C2170       C  0.37026698  0.75513718  0.70447956     0.04290
H2171       H  0.34643259  0.74083037  0.66249252     0.09400
H2172       H  0.37284951  0.75889687  0.72062288     0.08230
N2173       N  0.51262823  0.82487200  0.62812808    -0.26160
N2174       N  0.51745349  0.80678015  0.63651658    -0.34020
C2175       C  0.52003825  0.79259348  0.62165547     0.02180
C2176       C  0.51700838  0.80176661  0.60258888     0.08210
C2177       C  0.51212597  0.82235716  0.60723148    -0.04890
H2178       H  0.52293072  0.77637834  0.62475792     0.08880
H2179       H  0.50833970  0.83449819  0.59629728     0.10080
Cu2180     Cu  0.51802991  0.79903238  0.66734744     0.44170
Cu2181     Cu  0.50604325  0.85125375  0.64660848     0.41990
Cu2182     Cu  0.49200150  0.83202001  0.69852098     0.43880
N2183       N  0.50986569  0.79021153  0.69675226    -0.33540
N2184       N  0.49882221  0.80271698  0.70849219    -0.27800
C2185       C  0.49502296  0.79350893  0.72676696    -0.03900
C2186       C  0.50422152  0.77422861  0.72628944     0.08320
C2187       C  0.51346478  0.77250300  0.70706888     0.02110
H2188       H  0.48663899  0.80046232  0.73951471     0.09770
H2189       H  0.52214849  0.75947543  0.70109785     0.08840
N2190       N  0.49412085  0.86264527  0.69052450    -0.34990
N2191       N  0.49946200  0.87058223  0.67238155    -0.27170
C2192       C  0.50054091  0.89147764  0.67459601    -0.02410
C2193       C  0.49555906  0.89659730  0.69509527     0.06200
C2194       C  0.49190188  0.87774950  0.70449626     0.04290
H2195       H  0.50477993  0.90207691  0.66231138     0.09400
H2196       H  0.48878994  0.87488169  0.72072018     0.08230
N2197       N  0.63442647  0.73609108  0.83961252    -0.26160
N2198       N  0.62556127  0.73095552  0.82191070    -0.34020
C2199       C  0.63982925  0.72894625  0.80710258     0.02180
C2200       C  0.65918294  0.73237886  0.81555243     0.08210
C2201       C  0.65512452  0.73705734  0.83639055    -0.04890
H2202       H  0.63591570  0.72642149  0.79101722     0.08880
H2203       H  0.66623384  0.74126890  0.84819519     0.10080
Cu2204     Cu  0.59453646  0.72977013  0.81624049     0.44170
Cu2205     Cu  0.61587435  0.74353750  0.86546504     0.41990
Cu2206     Cu  0.56776452  0.76666037  0.84387323     0.43880
N2207       N  0.56592933  0.73933309  0.80700966    -0.33540
N2208       N  0.55626927  0.75464729  0.81647528    -0.27800
C2209       C  0.53853960  0.75867256  0.80634028    -0.03900
C2210       C  0.53724844  0.74508832  0.78978714     0.08320
C2211       C  0.55482802  0.73307686  0.79059485     0.02110
H2212       H  0.52740638  0.77038161  0.81075735     0.09770
H2213       H  0.55945395  0.72110048  0.77980589     0.08840
N2214       N  0.57427981  0.76316928  0.87505745    -0.34990
N2215       N  0.59003757  0.75289720  0.88318027    -0.27170
C2216       C  0.58547206  0.74866354  0.90323634    -0.02410
C2217       C  0.56590175  0.75662896  0.90783757     0.06200
C2218       C  0.55975765  0.76609758  0.88955794     0.04290
H2219       H  0.59513702  0.73934797  0.91326272     0.09400
H2220       H  0.54524412  0.77367791  0.88632623     0.08230
N2221       N  0.42301942  0.61283248  0.75196356    -0.26160
N2222       N  0.44161653  0.62083596  0.74879440    -0.34020
C2223       C  0.45547742  0.60574981  0.74624628     0.02180
C2224       C  0.44565443  0.58688565  0.74746021     0.08210
C2225       C  0.42494760  0.59186736  0.75135868    -0.04890
H2226       H  0.47185939  0.60853299  0.74436575     0.08880
H2227       H  0.41230766  0.58110510  0.75355515     0.10080
Cu2228     Cu  0.45074854  0.65114736  0.74902508     0.44170
Cu2229     Cu  0.39659793  0.63184020  0.75738272     0.41990
Cu2230     Cu  0.41635519  0.68483566  0.76583628     0.43880
N2231       N  0.45979784  0.68091372  0.75475178    -0.33540
N2232       N  0.44613302  0.69411358  0.76203693    -0.27800
C2233       C  0.45506812  0.71264407  0.76480451    -0.03900
C2234       C  0.47549720  0.71075217  0.75900350     0.08320
C2235       C  0.47809293  0.69048346  0.75263011     0.02110
H2236       H  0.44725197  0.72642854  0.77026286     0.09770
H2237       H  0.49203073  0.68334977  0.74670841     0.08840
N2238       N  0.38597260  0.67689225  0.76462522    -0.34990
N2239       N  0.37757438  0.65839642  0.76204821    -0.27170
C2240       C  0.35670177  0.66093783  0.76219622    -0.02410
C2241       C  0.35220250  0.68204235  0.76500765     0.06200
C2242       C  0.37134743  0.69133529  0.76601849     0.04290
H2243       H  0.34570650  0.64844357  0.76034598     0.09400
H2244       H  0.37482740  0.70767815  0.76694523     0.08230
N2245       N  0.63529232  0.82655637  0.75289268    -0.26160
N2246       N  0.62735405  0.80770652  0.75116020    -0.34020
C2247       C  0.64240702  0.79378336  0.74880699     0.02180
C2248       C  0.66115826  0.80381417  0.74863247     0.08210
C2249       C  0.65619188  0.82472349  0.75155264    -0.04890
H2250       H  0.63970574  0.77728344  0.74760370     0.08880
H2251       H  0.66690748  0.83758112  0.75234161     0.10080
Cu2252     Cu  0.59712271  0.79858463  0.75168680     0.44170
Cu2253     Cu  0.61622980  0.85323745  0.75694803     0.41990
Cu2254     Cu  0.56246526  0.83449199  0.76206503     0.43880
N2255       N  0.56678994  0.79035182  0.75443802    -0.33540
N2256       N  0.55308048  0.80472149  0.75882793    -0.27800
C2257       C  0.53430006  0.79613764  0.76053877    -0.03900
C2258       C  0.53653713  0.77520158  0.75699345     0.08320
C2259       C  0.55730753  0.77192135  0.75320448     0.02110
H2260       H  0.52027554  0.80441474  0.76441121     0.09770
H2261       H  0.56492622  0.75732362  0.75008900     0.08840
N2262       N  0.57116051  0.86465061  0.76257464    -0.34990
N2263       N  0.58987977  0.87271746  0.76085235    -0.27170
C2264       C  0.58779101  0.89367127  0.76167008    -0.02410
C2265       C  0.56679404  0.89847604  0.76418638     0.06200
C2266       C  0.55705064  0.87955931  0.76432960     0.04290
H2267       H  0.60049377  0.90453042  0.76056292     0.09400
H2268       H  0.54061600  0.87657605  0.76499309     0.08230
C2269       C  0.24702438  0.76419482  0.76245803     0.03420
C2270       C  0.26230388  0.76424885  0.74661810     0.03420
C2271       C  0.27790088  0.74874342  0.74624624     0.03420
C2272       C  0.27822107  0.73312098  0.76176355     0.03420
C2273       C  0.26300471  0.73302690  0.77764503     0.03420
C2274       C  0.24740612  0.74854463  0.77795020     0.03420
C2275       C  0.25797928  0.76123990  0.02200288     0.03420
C2276       C  0.24171394  0.76089013  0.00753812     0.03420
C2277       C  0.24061255  0.74499679  0.99264009     0.03420
C2278       C  0.25555923  0.72924984  0.99237661     0.03420
C2279       C  0.27147764  0.72930943  0.00719203     0.03420
C2280       C  0.27274775  0.74527795  0.02197622     0.03420
N2281       N  0.17176036  0.87344636  0.00022670    -0.26160
N2282       N  0.19016515  0.86579538  0.99543182    -0.34020
C2283       C  0.20368640  0.88116646  0.99271543     0.02180
C2284       C  0.19378996  0.89975284  0.99579273     0.08210
C2285       C  0.17347004  0.89441039  0.00076442    -0.04890
H2286       H  0.21994250  0.87882436  0.98952293     0.08880
H2287       H  0.16096285  0.90491950  0.00446517     0.10080
Cu2288     Cu  0.19965876  0.83558880  0.99493720     0.44170
Cu2289     Cu  0.14580679  0.85413235  0.00595601     0.41990
Cu2290     Cu  0.16583754  0.80133672  0.01333160     0.43880
N2291       N  0.20937189  0.80635312  0.00218846    -0.33540
N2292       N  0.19603516  0.79307326  0.00996020    -0.27800
C2293       C  0.20551862  0.77497381  0.01359564    -0.03900
C2294       C  0.22592326  0.77720577  0.00781342     0.08320
C2295       C  0.22798694  0.79727273  0.00068160     0.02110
H2296       H  0.19805703  0.76119382  0.01953311     0.09770
H2297       H  0.24175590  0.80453265  0.99451648     0.08840
N2298       N  0.13529491  0.80901931  0.01249684    -0.34990
N2299       N  0.12692602  0.82757357  0.01019202    -0.27170
C2300       C  0.10605843  0.82520821  0.01060727    -0.02410
C2301       C  0.10151970  0.80417676  0.01342286     0.06200
C2302       C  0.12056865  0.79467241  0.01414082     0.04290
H2303       H  0.09508555  0.83777681  0.00912098     0.09400
H2304       H  0.12377557  0.77826941  0.01531385     0.08230
N2305       N  0.26183317  0.66059562  0.87848908    -0.26160
N2306       N  0.26605269  0.67911948  0.88624803    -0.34020
C2307       C  0.26832257  0.69282014  0.87087215     0.02180
C2308       C  0.26563827  0.68284043  0.85216504     0.08210
C2309       C  0.26132361  0.66231920  0.85751582    -0.04890
H2310       H  0.27100900  0.70919110  0.87330701     0.08880
H2311       H  0.25809113  0.64966108  0.84699595     0.10080
Cu2312     Cu  0.26675912  0.68768984  0.91690504     0.44170
Cu2313     Cu  0.25651648  0.63459774  0.89783381     0.41990
Cu2314     Cu  0.24469884  0.65386306  0.95055907     0.43880
N2315       N  0.25993686  0.69666817  0.94665540    -0.33540
N2316       N  0.25041967  0.68386702  0.95938558    -0.27800
C2317       C  0.24709211  0.69343693  0.97758986    -0.03900
C2318       C  0.25504962  0.71324123  0.97606375     0.08320
C2319       C  0.26307031  0.71485719  0.95627740     0.02110
H2320       H  0.23982484  0.68641500  0.99096979     0.09770
H2321       H  0.27059632  0.72817622  0.94943181     0.08840
N2322       N  0.24645926  0.62318403  0.94230011    -0.34990
N2323       N  0.25112296  0.61535350  0.92390153    -0.27170
C2324       C  0.25191441  0.59441939  0.92580584    -0.02410
C2325       C  0.24732620  0.58916984  0.94631546     0.06200
C2326       C  0.24422049  0.60790288  0.95610147     0.04290
H2327       H  0.25545074  0.58385700  0.91326499     0.09400
H2328       H  0.24114667  0.61043405  0.97240380     0.08230
N2329       N  0.25066729  0.82882233  0.13466787    -0.26160
N2330       N  0.24416547  0.81127898  0.12634014    -0.34020
C2331       C  0.24103385  0.79720130  0.14120778     0.02180
C2332       C  0.24554574  0.80599618  0.16018746     0.08210
C2333       C  0.25182367  0.82615883  0.15549695    -0.04890
H2334       H  0.23686694  0.78124824  0.13817943     0.08880
H2335       H  0.25708969  0.83784128  0.16631756     0.10080
Cu2336     Cu  0.24316142  0.80456091  0.09530539     0.44170
Cu2337     Cu  0.25878667  0.85405505  0.11562913     0.41990
Cu2338     Cu  0.28025964  0.83192407  0.06760412     0.43880
N2339       N  0.25295307  0.79493300  0.06668711    -0.33540
N2340       N  0.26796658  0.80450664  0.05667691    -0.27800
C2341       C  0.27190611  0.79428888  0.03893937    -0.03900
C2342       C  0.25873760  0.77744589  0.03804150     0.08320
C2343       C  0.24694481  0.77824481  0.05582514     0.02110
H2344       H  0.28336322  0.79880212  0.02758002     0.09770
H2345       H  0.23521232  0.76733352  0.06069637     0.08840
N2346       N  0.27780451  0.86317901  0.07374952    -0.34990
N2347       N  0.26797645  0.87158457  0.08963795    -0.27170
C2348       C  0.26409370  0.89166537  0.08501562    -0.02410
C2349       C  0.27189778  0.89603096  0.06525395     0.06200
C2350       C  0.28085538  0.87750970  0.05906277     0.04290
H2351       H  0.25511606  0.90185746  0.09481200     0.09400
H2352       H  0.28816336  0.87395580  0.04446488     0.08230
N2353       N  0.17333364  0.74900397  0.87780417    -0.26160
N2354       N  0.19174731  0.75153721  0.88634446    -0.34020
C2355       C  0.20621431  0.75290072  0.87171440     0.02180
C2356       C  0.19698573  0.75192881  0.85246376     0.08210
C2357       C  0.17592699  0.74918424  0.85689408    -0.04890
H2358       H  0.22250504  0.75377927  0.87526880     0.08880
H2359       H  0.16347845  0.74738398  0.84583852     0.10080
Cu2360     Cu  0.19949996  0.75274772  0.91695081     0.44170
Cu2361     Cu  0.14666988  0.74421310  0.89644625     0.41990
Cu2362     Cu  0.16585883  0.73389934  0.95028858     0.43880
N2363       N  0.20831597  0.74847839  0.94696871    -0.33540
N2364       N  0.19522075  0.74008190  0.96009757    -0.27800
C2365       C  0.20444358  0.73774565  0.97859933    -0.03900
C2366       C  0.22435204  0.74525004  0.97675240     0.08320
C2367       C  0.22641612  0.75187338  0.95651530     0.02110
H2368       H  0.19728609  0.73105931  0.99220704     0.09770
H2369       H  0.24006923  0.75824976  0.94921601     0.08840
N2370       N  0.13560293  0.73486104  0.94125980    -0.34990
N2371       N  0.12762378  0.73857602  0.92271305    -0.27170
C2372       C  0.10671015  0.73853013  0.92471068    -0.02410
C2373       C  0.10171580  0.73450400  0.94545133     0.06200
C2374       C  0.12055984  0.73265918  0.95520225     0.04290
H2375       H  0.09600676  0.74122536  0.91209703     0.09400
H2376       H  0.12343031  0.73060820  0.97159723     0.08230
N2377       N  0.33998534  0.73541327  0.13254290    -0.26160
N2378       N  0.32420916  0.72564652  0.12393129    -0.34020
C2379       C  0.30957679  0.72208265  0.13817714     0.02180
C2380       C  0.31561913  0.73054439  0.15702563     0.08210
C2381       C  0.33530418  0.73869268  0.15279027    -0.04890
H2382       H  0.29517921  0.71463859  0.13434639     0.08880
H2383       H  0.34507186  0.74735781  0.16327589     0.10080
Cu2384     Cu  0.31842758  0.72342426  0.09257190     0.44170
Cu2385     Cu  0.36595146  0.74481915  0.11465842     0.41990
Cu2386     Cu  0.34631319  0.76026806  0.06462533     0.43880
N2387       N  0.30772840  0.73549247  0.06495690    -0.33540
N2388       N  0.31773996  0.75039293  0.05517541    -0.27800
C2389       C  0.30683082  0.75633684  0.03849243    -0.03900
C2390       C  0.28897672  0.74468427  0.03797907     0.08320
C2391       C  0.28997196  0.73155158  0.05487489     0.02110
H2392       H  0.31170905  0.76793764  0.02741200     0.09770
H2393       H  0.27862433  0.72015338  0.05954528     0.08840
N2394       N  0.37720495  0.75929274  0.07157187    -0.34990
N2395       N  0.38530463  0.75277262  0.08923569    -0.27170
C2396       C  0.40608043  0.75136063  0.08659782    -0.02410
C2397       C  0.41099355  0.75746790  0.06634665     0.06200
C2398       C  0.39213977  0.76220448  0.05750335     0.04290
H2399       H  0.41673303  0.74593332  0.09834531     0.09400
H2400       H  0.38920442  0.76621202  0.04148126     0.08230
N2401       N  0.38492441  0.66003655  0.00287466    -0.26160
N2402       N  0.37652763  0.67862672  0.00099145    -0.34020
C2403       C  0.39111200  0.69303339  0.99936319     0.02180
C2404       C  0.41020344  0.68367479  0.99939420     0.08210
C2405       C  0.40578596  0.66253012  0.00196821    -0.04890
H2406       H  0.38764344  0.70939695  0.99883350     0.08880
H2407       H  0.41682174  0.64998036  0.00306718     0.10080
Cu2408     Cu  0.34641663  0.68726390  0.00036870     0.44170
Cu2409     Cu  0.36609021  0.63333250  0.00749350     0.41990
Cu2410     Cu  0.31216859  0.65336973  0.01363123     0.43880
N2411       N  0.31679049  0.69682941  0.00382434    -0.33540
N2412       N  0.30296625  0.68316564  0.00973301    -0.27800
C2413       C  0.28455381  0.69242973  0.01180106    -0.03900
C2414       C  0.28724027  0.71304020  0.00680511     0.08320
C2415       C  0.30785433  0.71545129  0.00189116     0.02110
H2416       H  0.27046949  0.68482676  0.01669709     0.09770
H2417       H  0.31572684  0.72956334  0.99745370     0.08840
N2418       N  0.32071481  0.62310804  0.01366535    -0.34990
N2419       N  0.33928102  0.61466526  0.01204196    -0.27170
C2420       C  0.33678616  0.59377241  0.01308386    -0.02410
C2421       C  0.31567348  0.58933949  0.01547230     0.06200
C2422       C  0.30632254  0.60848233  0.01530414     0.04290
H2423       H  0.34932668  0.58271793  0.01214532     0.09400
H2424       H  0.28998968  0.61193820  0.01561170     0.08230
C2425       C  0.49958624  0.76738950  0.01230763     0.03420
C2426       C  0.51485429  0.76602435  0.99641455     0.03420
C2427       C  0.51420642  0.74950652  0.98180821     0.03420
C2428       C  0.49880849  0.73385579  0.98361202     0.03420
C2429       C  0.48377762  0.73511250  0.99964970     0.03420
C2430       C  0.48405243  0.75189906  0.01393195     0.03420
C2431       C  0.02810505  0.73683314  0.99668214     0.03420
C2432       C  0.01259747  0.72124440  0.99687888     0.03420
C2433       C  0.99726156  0.72132003  0.01260897     0.03420
C2434       C  0.99737010  0.73694639  0.02807695     0.03420
C2435       C  0.01269976  0.75266525  0.02777706     0.03420
C2436       C  0.02813733  0.75256008  0.01211745     0.03420
C2437       C  0.02142563  0.75969391  0.25632724     0.03420
C2438       C  0.02179728  0.74419434  0.27159911     0.03420
C2439       C  0.00702614  0.72825626  0.27126108     0.03420
C2440       C  0.99183074  0.72794894  0.25572133     0.03420
C2441       C  0.99143465  0.74350299  0.24052899     0.03420
C2442       C  0.00623949  0.75935509  0.24080561     0.03420
N2443       N  0.99807310  0.65977453  0.38492572    -0.26160
N2444       N  0.99579423  0.67839217  0.37665853    -0.34020
C2445       C  0.99442899  0.69265928  0.39152504     0.02180
C2446       C  0.99539528  0.68304191  0.41054976     0.08210
C2447       C  0.99796603  0.66202458  0.40586425    -0.04890
H2448       H  0.99357419  0.70910328  0.38842349     0.08880
H2449       H  0.99966212  0.64940429  0.41678199     0.10080
Cu2450     Cu  0.99589541  0.68660436  0.34618255     0.44170
Cu2451     Cu  0.00210115  0.63324267  0.36598896     0.41990
Cu2452     Cu  0.01312014  0.65201363  0.31220184     0.43880
N2453       N  0.00226950  0.69570397  0.31665656    -0.33540
N2454       N  0.00968663  0.68221522  0.30330110    -0.27800
C2455       C  0.01287822  0.69164884  0.28502877    -0.03900
C2456       C  0.00720038  0.71215490  0.28733507     0.08320
C2457       C  0.00050666  0.71427876  0.30752549     0.02110
H2458       H  0.01854385  0.68413449  0.27114543     0.09770
H2459       H  0.99460137  0.72811858  0.31491721     0.08840
N2460       N  0.01107382  0.62168921  0.32122199    -0.34990
N2461       N  0.00699171  0.61396806  0.33981768    -0.27170
C2462       C  0.00680449  0.59299418  0.33814975    -0.02410
C2463       C  0.01119871  0.58770958  0.31761759     0.06200
C2464       C  0.01348805  0.60635766  0.30756340     0.04290
H2465       H  0.00405259  0.58243921  0.35089493     0.09400
H2466       H  0.01650224  0.60877386  0.29123087     0.08230
N2467       N  0.99822085  0.87259705  0.17219245    -0.26160
N2468       N  0.99399343  0.86438851  0.19051668    -0.34020
C2469       C  0.99205007  0.87929062  0.20471627     0.02180
C2470       C  0.99475544  0.89827782  0.19534079     0.08210
C2471       C  0.99886780  0.89349441  0.17456942    -0.04890
H2472       H  0.98983168  0.87620598  0.22104817     0.08880
H2473       H  0.00225394  0.90432199  0.16221515     0.10080
Cu2474     Cu  0.99310286  0.83382924  0.19868471     0.44170
Cu2475     Cu  0.00398401  0.85373212  0.14584457     0.41990
Cu2476     Cu  0.01587458  0.80114039  0.16557174     0.43880
N2477       N  0.00036611  0.80451991  0.20808142    -0.33540
N2478       N  0.00990781  0.79187522  0.19524543    -0.27800
C2479       C  0.01352872  0.77377598  0.20481193    -0.03900
C2480       C  0.00594730  0.77543559  0.22473808     0.08320
C2481       C  0.99769995  0.79507220  0.22642259     0.02110
H2482       H  0.02094207  0.76047746  0.19780052     0.09770
H2483       H  0.99038734  0.80193868  0.23986133     0.08840
N2484       N  0.01463057  0.80931787  0.13499172    -0.34990
N2485       N  0.01007146  0.82757559  0.12683292    -0.27170
C2486       C  0.00970490  0.82531845  0.10588996    -0.02410
C2487       C  0.01441655  0.80471764  0.10105080     0.06200
C2488       C  0.01711758  0.79528430  0.12001178     0.04290
H2489       H  0.00626240  0.83765287  0.09505754     0.09400
H2490       H  0.01992853  0.77902779  0.12296852     0.08230
N2491       N  0.87799643  0.65956587  0.25697685    -0.26160
N2492       N  0.88615593  0.67793945  0.26096803    -0.34020
C2493       C  0.87126874  0.69198679  0.26350338     0.02180
C2494       C  0.85229401  0.68245664  0.26169804     0.08210
C2495       C  0.85710092  0.66174686  0.25726294    -0.04890
H2496       H  0.87437147  0.70827855  0.26582812     0.08880
H2497       H  0.84628569  0.64926354  0.25447590     0.10080
Cu2498     Cu  0.91656256  0.68621149  0.26252336     0.44170
Cu2499     Cu  0.89702603  0.63345367  0.25060188     0.41990
Cu2500     Cu  0.94970939  0.65404191  0.24029556     0.43880
N2501       N  0.94639752  0.69541337  0.25817021    -0.33540
N2502       N  0.95932671  0.68294296  0.24858286    -0.27800
C2503       C  0.97773589  0.69229694  0.24661570    -0.03900
C2504       C  0.97604508  0.71164987  0.25553169     0.08320
C2505       C  0.95599075  0.71328975  0.26263083     0.02110
H2506       H  0.99116038  0.68563451  0.23914681     0.09770
H2507       H  0.94883489  0.72653601  0.26999762     0.08840
N2508       N  0.94182185  0.62346529  0.24096912    -0.34990
N2509       N  0.92360044  0.61496112  0.24469583    -0.27170
C2510       C  0.92635067  0.59411273  0.24537986    -0.02410
C2511       C  0.94733040  0.58961999  0.24205068     0.06200
C2512       C  0.95632662  0.60886156  0.23964653     0.04290
H2513       H  0.91408033  0.58317850  0.24853194     0.09400
H2514       H  0.97254562  0.61253915  0.23837195     0.08230
N2515       N  0.13477627  0.82809698  0.25097210    -0.26160
N2516       N  0.12608713  0.80994028  0.24720659    -0.34020
C2517       C  0.14048667  0.79532047  0.24536630     0.02180
C2518       C  0.15977736  0.80417935  0.24728517     0.08210
C2519       C  0.15559728  0.82517959  0.25111883    -0.04890
H2520       H  0.13673091  0.77910521  0.24362007     0.08880
H2521       H  0.16676678  0.83733641  0.25391972     0.10080
Cu2522     Cu  0.09554686  0.80248254  0.24564387     0.44170
Cu2523     Cu  0.11620767  0.85465527  0.25692654     0.41990
Cu2524     Cu  0.06331606  0.83442546  0.26884804     0.43880
N2525       N  0.06622883  0.79280545  0.25172153    -0.33540
N2526       N  0.05357908  0.80522542  0.26173080    -0.27800
C2527       C  0.03547976  0.79555543  0.26483211    -0.03900
C2528       C  0.03717750  0.77600661  0.25633451     0.08320
C2529       C  0.05681974  0.77464659  0.24814710     0.02110
H2530       H  0.02221769  0.80219641  0.27260813     0.09770
H2531       H  0.06378877  0.76147567  0.24047081     0.08840
N2532       N  0.07159785  0.86491078  0.26757918    -0.34990
N2533       N  0.08976655  0.87326961  0.26318679    -0.27170
C2534       C  0.08718396  0.89415745  0.26266230    -0.02410
C2535       C  0.06644552  0.89875872  0.26696288     0.06200
C2536       C  0.05732670  0.87966213  0.26963212     0.04290
H2537       H  0.09937917  0.90509430  0.25919632     0.09400
H2538       H  0.04110602  0.87633473  0.27186218     0.08230
N2539       N  0.87788640  0.74608045  0.17210990    -0.26160
N2540       N  0.88601096  0.75078399  0.19034815    -0.34020
C2541       C  0.87107742  0.75338795  0.20436576     0.02180
C2542       C  0.85213828  0.75078085  0.19491392     0.08210
C2543       C  0.85700842  0.74589723  0.17432320    -0.04890
H2544       H  0.87411313  0.75617739  0.22061519     0.08880
H2545       H  0.84624884  0.74241213  0.16195378     0.10080
Cu2546     Cu  0.91650278  0.75244039  0.19845795     0.44170
Cu2547     Cu  0.89686715  0.73927901  0.14613632     0.41990
Cu2548     Cu  0.94904121  0.72762292  0.16683214     0.43880
N2549       N  0.94611466  0.74678564  0.20782741    -0.33540
N2550       N  0.95862852  0.73620345  0.19571462    -0.27800
C2551       C  0.97688442  0.73364983  0.20524671    -0.03900
C2552       C  0.97551300  0.74315136  0.22435001     0.08320
C2553       C  0.95584273  0.75130523  0.22564051     0.02110
H2554       H  0.99003807  0.72552460  0.19881539     0.09770
H2555       H  0.94904143  0.75951153  0.23858489     0.08840
N2556       N  0.94137105  0.72855272  0.13614469    -0.34990
N2557       N  0.92327021  0.73291740  0.12766078    -0.27170
C2558       C  0.92600789  0.73377491  0.10680936    -0.02410
C2559       C  0.94683891  0.72982871  0.10229278     0.06200
C2560       C  0.95581418  0.72689734  0.12148158     0.04290
H2561       H  0.91385154  0.73740877  0.09587607     0.09400
H2562       H  0.97202482  0.72499409  0.12500429     0.08230
N2563       N  0.13568452  0.73933655  0.33998126    -0.26160
N2564       N  0.12751948  0.73591231  0.32146682    -0.34020
C2565       C  0.14241190  0.73349361  0.30736765     0.02180
C2566       C  0.16136636  0.73498909  0.31695651     0.08210
C2567       C  0.15659866  0.73898834  0.33778404    -0.04890
H2568       H  0.13942366  0.73139414  0.29099337     0.08880
H2569       H  0.16747047  0.74136925  0.35031871     0.10080
Cu2570     Cu  0.09707872  0.73543676  0.31313083     0.44170
Cu2571     Cu  0.11651544  0.74474779  0.36636561     0.41990
Cu2572     Cu  0.06364666  0.75594208  0.34652947     0.43880
N2573       N  0.06738716  0.74089055  0.30396616    -0.33540
N2574       N  0.05437440  0.74970804  0.31692344    -0.27800
C2575       C  0.03601783  0.75221420  0.30755931    -0.03900
C2576       C  0.03784282  0.74450219  0.28768199     0.08320
C2577       C  0.05789751  0.73748221  0.28578233     0.02110
H2578       H  0.02245437  0.75897810  0.31467093     0.09770
H2579       H  0.06504321  0.73058410  0.27227020     0.08840
N2580       N  0.07180138  0.75454474  0.37709561    -0.34990
N2581       N  0.09005917  0.75028088  0.38534208    -0.27170
C2582       C  0.08758717  0.74964025  0.40627578    -0.02410
C2583       C  0.06684997  0.75382006  0.41100891     0.06200
C2584       C  0.05759867  0.75651189  0.39196270     0.04290
H2585       H  0.09986308  0.74630139  0.41717826     0.09400
H2586       H  0.04134886  0.75886013  0.38881616     0.08230
C2587       C  0.24956442  0.72091890  0.26324212     0.03420
C2588       C  0.26462278  0.72131225  0.24717762     0.03420
C2589       C  0.26370884  0.73671842  0.23144469     0.03420
C2590       C  0.24802105  0.75219684  0.23221046     0.03420
C2591       C  0.23311310  0.75193365  0.24846374     0.03420
C2592       C  0.23382500  0.73624096  0.26390900     0.03420
C2593       C  0.19870642  0.74567447  0.31076108     0.24730
C2594       C  0.18149920  0.73322723  0.30576581    -0.23380
C2595       C  0.18265173  0.72048623  0.28800160     0.19640
C2596       C  0.19961820  0.72144592  0.27471463     0.24670
C2597       C  0.21646964  0.73438607  0.27919192    -0.23320
C2598       C  0.21610871  0.74616652  0.29757779     0.19570
F2599       F  0.23229674  0.75868044  0.30234120    -0.13280
F2600       F  0.19827575  0.75814110  0.32771164    -0.15640
F2601       F  0.19906087  0.71029204  0.25690695    -0.15650
F2602       F  0.16709171  0.70719896  0.28313312    -0.13280
C2603       C  0.19778139  0.79883338  0.25649467     0.24730
C2604       C  0.17962199  0.79228677  0.24624493    -0.23380
C2605       C  0.17991537  0.77287767  0.23605551     0.19640
C2606       C  0.19683735  0.75970364  0.23777805     0.24670
C2607       C  0.21496522  0.76623728  0.24768779    -0.23320
C2608       C  0.21544873  0.78601286  0.25686876     0.19570
F2609       F  0.23277724  0.79256940  0.26677446    -0.13280
F2610       F  0.19830858  0.81723584  0.26666284    -0.15640
F2611       F  0.19537348  0.74034122  0.22969492    -0.15650
F2612       F  0.16390877  0.76645005  0.22404151    -0.13280
C2613       C  0.95143484  0.74178322  0.06494196     0.24730
C2614       C  0.95846590  0.73035462  0.08224474    -0.23380
C2615       C  0.97792525  0.72043507  0.08084930     0.19640
C2616       C  0.99055654  0.72325509  0.06359383     0.24670
C2617       C  0.98365455  0.73476274  0.04653253    -0.23320
C2618       C  0.96386279  0.74370983  0.04711980     0.19570
F2619       F  0.95679780  0.75467763  0.03060931    -0.13280
F2620       F  0.93289835  0.75160748  0.06539779    -0.15640
F2621       F  0.00975049  0.71475807  0.06366336    -0.15650
F2622       F  0.98489442  0.70766619  0.09605667    -0.13280
C2623       C  0.00222898  0.79819755  0.06418813     0.24730
C2624       C  0.01561055  0.79361193  0.08082915    -0.23380
C2625       C  0.02882342  0.77630544  0.07909374     0.19640
C2626       C  0.02751662  0.76303467  0.06212102     0.24670
C2627       C  0.01419994  0.76746725  0.04553911    -0.23320
C2628       C  0.00170450  0.78529468  0.04655940     0.19570
F2629       F  0.98841782  0.78969178  0.03086211    -0.13280
F2630       F  0.98893409  0.81442553  0.06541232    -0.15640
F2631       F  0.03859460  0.74521775  0.06249389    -0.15650
F2632       F  0.04290275  0.77185842  0.09409305    -0.13280
C2633       C  0.44868504  0.68794511  0.00654163     0.24730
C2634       C  0.43009290  0.69531132  0.99778514    -0.23380
C2635       C  0.43002658  0.71530777  0.98877727     0.19640
C2636       C  0.44708408  0.72826513  0.99051322     0.24670
C2637       C  0.46553859  0.72101414  0.99920538    -0.23320
C2638       C  0.46643062  0.70061202  0.00684397     0.19570
F2639       F  0.48425542  0.69326530  0.01518323    -0.13280
F2640       F  0.44957953  0.66885826  0.01532243    -0.15640
F2641       F  0.44573014  0.74793470  0.98309143    -0.15650
F2642       F  0.41357362  0.72246467  0.97782421    -0.13280
C2643       C  0.26888372  0.72918441  0.19358715     0.24730
C2644       C  0.27741540  0.73503832  0.21269687    -0.23380
C2645       C  0.29879247  0.73888887  0.21374531     0.19640
C2646       C  0.31129884  0.73719101  0.19590191     0.24670
C2647       C  0.30258303  0.73215391  0.17639368    -0.23320
C2648       C  0.28096712  0.72850127  0.17564656     0.19570
F2649       F  0.27095626  0.72469940  0.15757479    -0.13280
F2650       F  0.24867696  0.72369054  0.19227012    -0.15640
F2651       F  0.33194888  0.74022989  0.19793446    -0.15650
F2652       F  0.30759041  0.74421038  0.23210702    -0.13280
C2653       C  0.45163900  0.77000786  0.02570712     0.24730
C2654       C  0.46649537  0.75445973  0.02895871    -0.23380
C2655       C  0.46383448  0.74071543  0.04571754     0.19640
C2656       C  0.44629815  0.74211039  0.05858766     0.24670
C2657       C  0.43112096  0.75736927  0.05495075    -0.23320
C2658       C  0.43437312  0.77163157  0.03865787     0.19570
F2659       F  0.42066186  0.78715532  0.03500809    -0.13280
F2660       F  0.45335587  0.78315352  0.00935211    -0.15640
F2661       F  0.44369460  0.72787430  0.07386291    -0.15650
F2662       F  0.47800344  0.72560551  0.04927731    -0.13280
C2663       C  0.06302625  0.72285114  0.98771298     0.24730
C2664       C  0.04599127  0.73507108  0.98214233    -0.23380
C2665       C  0.04654203  0.74603113  0.96328244     0.19640
C2666       C  0.06425881  0.74530075  0.95056954     0.24670
C2667       C  0.08146507  0.73321524  0.95642148    -0.23320
C2668       C  0.08010803  0.72127326  0.97471235     0.19570
F2669       F  0.09550322  0.70810346  0.98035428    -0.13280
F2670       F  0.06362195  0.71298595  0.00625810    -0.15640
F2671       F  0.06491202  0.75712028  0.93317183    -0.15650
F2672       F  0.03025155  0.75802784  0.95761865    -0.13280
C2673       C  0.26073209  0.78391729  0.21296023     0.24730
C2674       C  0.24629893  0.76770153  0.21498247    -0.23380
C2675       C  0.23099929  0.76542310  0.19966719     0.19640
C2676       C  0.22989630  0.77904214  0.18295850     0.24670
C2677       C  0.24483884  0.79466823  0.18027372    -0.23320
C2678       C  0.26010657  0.79725349  0.19566614     0.19570
F2679       F  0.27507905  0.81182082  0.19341840    -0.13280
F2680       F  0.27593296  0.78625310  0.22730034    -0.15640
F2681       F  0.21437185  0.77645825  0.16898762    -0.15650
F2682       F  0.21794271  0.74903765  0.19985896    -0.13280
C2683       C  0.04600561  0.78639926  0.00353152     0.24730
C2684       C  0.04607168  0.76705553  0.01359840    -0.23380
C2685       C  0.06365843  0.76106753  0.02480495     0.19640
C2686       C  0.08077068  0.77405929  0.02612203     0.24670
C2687       C  0.08146742  0.79288743  0.01499499    -0.23320
C2688       C  0.06367402  0.79917908  0.00403028     0.19570
F2689       F  0.06366437  0.81713346  0.99306993    -0.13280
F2690       F  0.02911821  0.79252024  0.99263006    -0.15640
F2691       F  0.09677696  0.76795710  0.03832825    -0.15650
F2692       F  0.06462117  0.74225001  0.03410473    -0.13280
C2693       C  0.20080990  0.74357175  0.81402037     0.24730
C2694       C  0.20848997  0.75275398  0.83235119    -0.23380
C2695       C  0.22846999  0.76167139  0.83182881     0.19640
C2696       C  0.24101951  0.75965581  0.81443179     0.24670
C2697       C  0.23353860  0.75026654  0.79634976    -0.23320
C2698       C  0.21317972  0.74263984  0.79605526     0.19570
F2699       F  0.20555665  0.73373087  0.77857768    -0.13280
F2700       F  0.18168694  0.73494395  0.81357825    -0.15640
F2701       F  0.26068008  0.76696700  0.81533162    -0.15650
F2702       F  0.23606405  0.77272252  0.84804802    -0.13280
C2703       C  0.25164373  0.70126774  0.79770081     0.24730
C2704       C  0.26494110  0.71840685  0.79557542    -0.23380
C2705       C  0.27931124  0.72252083  0.81138163     0.19640
C2706       C  0.28048046  0.70987016  0.82885818     0.24670
C2707       C  0.26659046  0.69327914  0.83160262    -0.23320
C2708       C  0.25238727  0.68881017  0.81563464     0.19570
F2709       F  0.23847467  0.67322245  0.81788218    -0.13280
F2710       F  0.23741388  0.69713550  0.78277996    -0.15640
F2711       F  0.29503671  0.71424974  0.84341640    -0.15650
F2712       F  0.29151258  0.73956878  0.81058698    -0.13280
C2713       C  0.31396670  0.68622045  0.75631936     0.24730
C2714       C  0.33216913  0.69362370  0.76587100    -0.23380
C2715       C  0.33168281  0.71352921  0.77507456     0.19640
C2716       C  0.31449403  0.72631139  0.77295209     0.24670
C2717       C  0.29647752  0.71905838  0.76335306    -0.23320
C2718       C  0.29613658  0.69876241  0.75540052     0.19570
F2719       F  0.27877322  0.69139291  0.74615053    -0.13280
F2720       F  0.31355213  0.66722619  0.74730427    -0.15640
F2721       F  0.31557039  0.74601131  0.78026589    -0.15650
F2722       F  0.34776826  0.72083685  0.78646227    -0.13280
C2723       C  0.53113817  0.75534059  0.92569828     0.24730
C2724       C  0.55291997  0.75376783  0.92690196    -0.23380
C2725       C  0.56185955  0.74987386  0.94652533     0.19640
C2726       C  0.54937348  0.74785021  0.96430951     0.24670
C2727       C  0.52778634  0.75017221  0.96295430    -0.23320
C2728       C  0.51895201  0.75427900  0.94349895     0.19570
F2729       F  0.49843384  0.75831796  0.94178996    -0.13280
F2730       F  0.52122636  0.75765068  0.90729777    -0.15640
F2731       F  0.55838676  0.74406351  0.98294800    -0.15650
F2732       F  0.58268594  0.74857711  0.94870375    -0.13280
C2733       C  0.32858222  0.76623141  0.72228769     0.24730
C2734       C  0.33120667  0.75219023  0.70572112    -0.23380
C2735       C  0.31526600  0.73787303  0.70156653     0.19640
C2736       C  0.29755139  0.73715833  0.71427557     0.24670
C2737       C  0.29564847  0.75051769  0.73143253    -0.23320
C2738       C  0.31141141  0.76496365  0.73527788     0.19570
F2739       F  0.31081553  0.77723308  0.75233135    -0.13280
F2740       F  0.34290041  0.78111168  0.72629145    -0.15640
F2741       F  0.28259562  0.72293850  0.71031726    -0.15650
F2742       F  0.31727085  0.72388441  0.68597444    -0.13280
C2743       C  0.51239163  0.68806755  0.94852004     0.24730
C2744       C  0.49684921  0.68953188  0.93330833    -0.23380
C2745       C  0.48093231  0.70414433  0.93597899     0.19640
C2746       C  0.48138913  0.71811173  0.95242919     0.24670
C2747       C  0.49724816  0.71730406  0.96733651    -0.23320
C2748       C  0.51252272  0.70183044  0.96548932     0.19570
F2749       F  0.52814654  0.70081036  0.97952105    -0.13280
F2750       F  0.52821252  0.67444430  0.94616650    -0.15640
F2751       F  0.46733389  0.73367548  0.95252092    -0.15650
F2752       F  0.46539313  0.70573730  0.92186598    -0.13280
C2753       C  0.54903468  0.95374780  0.75293853     0.24730
C2754       C  0.52944890  0.95368056  0.76242779    -0.23380
C2755       C  0.52336781  0.93634276  0.77399125     0.19640
C2756       C  0.53646744  0.91935816  0.77605480     0.24670
C2757       C  0.55554590  0.91859105  0.76540724    -0.23320
C2758       C  0.56194632  0.93621112  0.75421183     0.19570
F2759       F  0.58014979  0.93613578  0.74374856    -0.13280
F2760       F  0.55531242  0.97051661  0.74190302    -0.15640
F2761       F  0.53022880  0.90351446  0.78844477    -0.15650
F2762       F  0.50443711  0.93560458  0.78302377    -0.13280
C2763       C  0.50932100  0.95146683  0.71297700     0.24730
C2764       C  0.49735555  0.95308449  0.73113316    -0.23380
C2765       C  0.48424755  0.93663055  0.73650790     0.19640
C2766       C  0.48250309  0.91927132  0.72378688     0.24670
C2767       C  0.49513257  0.91697579  0.70607845    -0.23320
C2768       C  0.50840914  0.93345352  0.70063353     0.19570
F2769       F  0.52116368  0.93180473  0.68400223    -0.13280
F2770       F  0.52243206  0.96700839  0.70765828    -0.15640
F2771       F  0.46841900  0.90458561  0.72909194    -0.15650
F2772       F  0.47374447  0.93680912  0.75469018    -0.13280
C2773       C  0.43197790  0.02508165  0.77616398     0.24730
C2774       C  0.43055829  0.04298898  0.76367673    -0.23380
C2775       C  0.44769400  0.04848635  0.75134381     0.19640
C2776       C  0.46542641  0.03578783  0.75091820     0.24670
C2777       C  0.46608573  0.01729946  0.76248267    -0.23320
C2778       C  0.44912196  0.01210401  0.77498174     0.19570
F2779       F  0.44861027  0.99388993  0.78542605    -0.13280
F2780       F  0.41653085  0.01976370  0.78941692    -0.15640
F2781       F  0.48160241  0.04105151  0.73858481    -0.15650
F2782       F  0.44690086  0.06545336  0.73893143    -0.13280
C2783       C  0.23613084  0.79777083  0.77895687     0.24730
C2784       C  0.23232743  0.78209370  0.76433737    -0.23380
C2785       C  0.21514712  0.78410263  0.75106608     0.19640
C2786       C  0.20225741  0.80169834  0.75219595     0.24670
C2787       C  0.20625275  0.81745618  0.76681783    -0.23320
C2788       C  0.22299591  0.81483598  0.78060069     0.19570
F2789       F  0.22695424  0.82900543  0.79567700    -0.13280
F2790       F  0.25322444  0.79717521  0.79110020    -0.15640
F2791       F  0.18657841  0.80376151  0.73835333    -0.15650
F2792       F  0.21126878  0.76932643  0.73659090    -0.13280
C2793       C  0.43063149  0.97227589  0.72516545     0.24730
C2794       C  0.42931689  0.98334818  0.70629037    -0.23380
C2795       C  0.44689816  0.99446042  0.69959492     0.19640
C2796       C  0.46489546  0.99507229  0.71192779     0.24670
C2797       C  0.46539896  0.98509185  0.73131657    -0.23320
C2798       C  0.44800833  0.97388513  0.73780347     0.19570
F2799       F  0.44747688  0.96488978  0.75679970    -0.13280
F2800       F  0.41508439  0.95971550  0.73166100    -0.15640
F2801       F  0.48156404  0.00601743  0.70532313    -0.15650
F2802       F  0.44648644  0.00536193  0.68160469    -0.13280
C2803       C  0.27548721  0.81779148  0.72704622     0.24730
C2804       C  0.26659884  0.81806602  0.70700729    -0.23380
C2805       C  0.25747432  0.79970718  0.69944477     0.19640
C2806       C  0.25647301  0.78191566  0.71206374     0.24670
C2807       C  0.26398362  0.78247011  0.73252966    -0.23320
C2808       C  0.27341156  0.80058149  0.73984776     0.19570
F2809       F  0.28063587  0.80169762  0.75959261    -0.13280
F2810       F  0.28638105  0.83418828  0.73446962    -0.15640
F2811       F  0.24755977  0.76438772  0.70460706    -0.15650
F2812       F  0.24885415  0.79915395  0.68026259    -0.13280
C2813       C  0.25873570  0.20183239  0.79699577     0.24730
C2814       C  0.24673342  0.20289120  0.77882039    -0.23380
C2815       C  0.23387043  0.18613803  0.77378918     0.19640
C2816       C  0.23237832  0.16903220  0.78687677     0.24670
C2817       C  0.24503965  0.16729941  0.80463405    -0.23320
C2818       C  0.25809187  0.18407541  0.80971597     0.19570
F2819       F  0.27088226  0.18296989  0.82636992    -0.13280
F2820       F  0.27163050  0.21767009  0.80197211    -0.15640
F2821       F  0.21848548  0.15405228  0.78189533    -0.15650
F2822       F  0.22333615  0.18579484  0.75562185    -0.13280
C2823       C  0.27180557  0.18554338  0.73538178     0.24730
C2824       C  0.27813716  0.20283427  0.74689483    -0.23380
C2825       C  0.29772697  0.20263905  0.75636807     0.19640
C2826       C  0.31040733  0.18493097  0.75509574     0.24670
C2827       C  0.30376227  0.16733884  0.74395892    -0.23320
C2828       C  0.28463662  0.16832667  0.73339851     0.19570
F2829       F  0.27813400  0.15255708  0.72105388    -0.13280
F2830       F  0.25289619  0.18510543  0.72627412    -0.15640
F2831       F  0.32867290  0.18472050  0.76545361    -0.15650
F2832       F  0.30426837  0.21935675  0.76733338    -0.13280
C2833       C  0.19658851  0.29814166  0.75685829     0.24730
C2834       C  0.17915996  0.29210513  0.74515487    -0.23380
C2835       C  0.18038151  0.27362450  0.73347139     0.19640
C2836       C  0.19758313  0.26072225  0.73488412     0.24670
C2837       C  0.21479330  0.26646891  0.74678717    -0.23320
C2838       C  0.21435169  0.28547270  0.75748817     0.19570
F2839       F  0.23083724  0.29136327  0.76911460    -0.13280
F2840       F  0.19615955  0.31573802  0.76837729    -0.15640
F2841       F  0.19700962  0.24215423  0.72507005    -0.15650
F2842       F  0.16481800  0.26776203  0.72059631    -0.13280
C2843       C  0.18034559  0.22148386  0.78574433     0.24730
C2844       C  0.17922262  0.23299475  0.80434626    -0.23380
C2845       C  0.19667629  0.24462774  0.81042233     0.19640
C2846       C  0.21439866  0.24530105  0.79770689     0.24670
C2847       C  0.21472734  0.23478980  0.77858832    -0.23320
C2848       C  0.19744655  0.22305945  0.77274280     0.19570
F2849       F  0.19672031  0.21355117  0.75400712    -0.13280
F2850       F  0.16479147  0.20861881  0.77986026    -0.15640
F2851       F  0.23094538  0.25679708  0.80366026    -0.15650
F2852       F  0.19632196  0.25602026  0.82811227    -0.13280
C2853       C  0.98865872  0.04950140  0.73648513     0.24730
C2854       C  0.98177007  0.03237688  0.74788086    -0.23380
C2855       C  0.96204016  0.03298008  0.75696395     0.19640
C2856       C  0.94965206  0.05084552  0.75523318     0.24670
C2857       C  0.95665253  0.06820900  0.74387123    -0.23320
C2858       C  0.97607419  0.06680209  0.73384995     0.19570
F2859       F  0.98308385  0.08200643  0.72112040    -0.13280
F2860       F  0.00783735  0.04963543  0.72796259    -0.15640
F2861       F  0.93116199  0.05124137  0.76514767    -0.15650
F2862       F  0.95500107  0.01644423  0.76789289    -0.13280
C2863       C  0.99943995  0.03197549  0.79900861     0.24730
C2864       C  0.01180791  0.03142069  0.78104529    -0.23380
C2865       C  0.02456750  0.04841318  0.77657153     0.19640
C2866       C  0.02536406  0.06538443  0.78984901     0.24670
C2867       C  0.01213970  0.06668670  0.80717734    -0.23320
C2868       C  0.99942630  0.04960887  0.81191707     0.19570
F2869       F  0.98617429  0.05045562  0.82821905    -0.13280
F2870       F  0.98670308  0.01586072  0.80346216    -0.15640
F2871       F  0.03878412  0.08093596  0.78528403    -0.15650
F2872       F  0.03548650  0.04923650  0.75866257    -0.13280
C2873       C  0.04421541  0.98904445  0.79982224     0.24730
C2874       C  0.04398426  0.99987757  0.78088453    -0.23380
C2875       C  0.06114243  0.01196553  0.77542725     0.19640
C2876       C  0.07804154  0.01355624  0.78864629     0.24670
C2877       C  0.07909286  0.00168522  0.80699336    -0.23320
C2878       C  0.06178240  0.98973558  0.81273137     0.19570
F2879       F  0.06225195  0.97794359  0.83015560    -0.13280
F2880       F  0.02780101  0.97715322  0.80533334    -0.15640
F2881       F  0.09363820  0.02654418  0.78312526    -0.15650
F2882       F  0.06202677  0.02166765  0.75680100    -0.13280
C2883       C  0.04517773  0.94925520  0.75893230     0.24730
C2884       C  0.04477447  0.96854811  0.74876272    -0.23380
C2885       C  0.06208411  0.97464490  0.73719050     0.19640
C2886       C  0.07932475  0.96181484  0.73555921     0.24670
C2887       C  0.08050378  0.94299674  0.74671309    -0.23320
C2888       C  0.06298062  0.93663428  0.75810746     0.19570
F2889       F  0.06329576  0.91868426  0.76906386    -0.13280
F2890       F  0.02856672  0.94296283  0.77015043    -0.15640
F2891       F  0.09489487  0.96803710  0.72287504    -0.15650
F2892       F  0.06264221  0.99341444  0.72776875    -0.13280
C2893       C  0.81140561  0.22250701  0.77782092     0.24730
C2894       C  0.79507075  0.21769341  0.76432661    -0.23380
C2895       C  0.79630750  0.19952512  0.75232583     0.19640
C2896       C  0.81401487  0.18683603  0.75324324     0.24670
C2897       C  0.83065738  0.19208347  0.76638218    -0.23320
C2898       C  0.82865185  0.20965625  0.77925014     0.19570
F2899       F  0.84357889  0.21474470  0.79317572    -0.13280
F2900       F  0.81124027  0.24027352  0.78902209    -0.15640
F2901       F  0.81525651  0.17010741  0.74054659    -0.15650
F2902       F  0.78068662  0.19451719  0.73918076    -0.13280
C2903       C  0.81446380  0.25894994  0.73939760     0.24730
C2904       C  0.79671806  0.24878164  0.73222230    -0.23380
C2905       C  0.79696790  0.23979544  0.71236548     0.19640
C2906       C  0.81494234  0.24070516  0.70003456     0.24670
C2907       C  0.83272027  0.25128147  0.70716397    -0.23320
C2908       C  0.83176191  0.26107497  0.72676165     0.19570
F2909       F  0.84737959  0.27321362  0.73384181    -0.13280
F2910       F  0.81505847  0.26714229  0.75878213    -0.15640
F2911       F  0.81502273  0.23078543  0.68148117    -0.15650
F2912       F  0.78001862  0.22965203  0.70520547    -0.13280
C2913       C  0.77944731  0.31258759  0.71737249     0.24730
C2914       C  0.76418080  0.31458384  0.70198800    -0.23380
C2915       C  0.74962080  0.29860432  0.69942048     0.19640
C2916       C  0.74976088  0.28142955  0.71287660     0.24670
C2917       C  0.76431865  0.28019185  0.72908787    -0.23320
C2918       C  0.77920005  0.29593598  0.73103504     0.19570
F2919       F  0.79245369  0.29634562  0.74727283    -0.13280
F2920       F  0.79400110  0.32755610  0.72004016    -0.15640
F2921       F  0.73503720  0.26657038  0.71083554    -0.15650
F2922       F  0.73440680  0.30036524  0.68501638    -0.13280
C2923       C  0.73101250  0.32031332  0.76989269     0.24730
C2924       C  0.70937819  0.31995648  0.76640373    -0.23380
C2925       C  0.70032507  0.30080045  0.76073154     0.19640
C2926       C  0.71253666  0.28285187  0.75845516     0.24670
C2927       C  0.73392888  0.28349738  0.76224281    -0.23320
C2928       C  0.74282006  0.30228281  0.76850676     0.19570
F2929       F  0.76307516  0.30313322  0.77392112    -0.13280
F2930       F  0.74128338  0.33808406  0.77429026    -0.15640
F2931       F  0.70343840  0.26476569  0.75276326    -0.15650
F2932       F  0.67963129  0.29919449  0.75771835    -0.13280
C2933       C  0.72225396  0.96873699  0.43338067     0.24730
C2934       C  0.70569875  0.98268583  0.43047521    -0.23380
C2935       C  0.70132409  0.99700517  0.44641180     0.19640
C2936       C  0.71378584  0.99783573  0.46436328     0.24670
C2937       C  0.73087670  0.98449109  0.46664211    -0.23320
C2938       C  0.73487386  0.96994792  0.45092141     0.19570
F2939       F  0.75177926  0.95756897  0.45188524    -0.13280
F2940       F  0.72658282  0.95397368  0.41899677    -0.15640
F2941       F  0.70963520  0.01216459  0.47920586    -0.15650
F2942       F  0.68574826  0.01092052  0.44416751    -0.13280
C2943       C  0.75477874  0.04929944  0.44812986     0.24730
C2944       C  0.76415532  0.04165885  0.42989401    -0.23380
C2945       C  0.77318764  0.02170571  0.43046521     0.19640
C2946       C  0.77107614  0.00910708  0.44779564     0.24670
C2947       C  0.76182275  0.01665170  0.46590507    -0.23320
C2948       C  0.75397555  0.03696575  0.46614427     0.19570
F2949       F  0.74497080  0.04454921  0.48358157    -0.13280
F2950       F  0.74587255  0.06833233  0.44842160    -0.15640
F2951       F  0.77856991  0.98945433  0.44699348    -0.15650
F2952       F  0.78452126  0.01422649  0.41439852    -0.13280
C2953       C  0.78741432  0.17027731  0.23130009     0.24730
C2954       C  0.80485517  0.16816731  0.24428617    -0.23380
C2955       C  0.80978785  0.18455885  0.25788548     0.19640
C2956       C  0.79703960  0.20222091  0.25896558     0.24670
C2957       C  0.77910779  0.20361799  0.24669958    -0.23320
C2958       C  0.77446244  0.18744094  0.23293231     0.19570
F2959       F  0.75683184  0.18776756  0.22156036    -0.13280
F2960       F  0.78261021  0.15556387  0.21701633    -0.15640
F2961       F  0.80180575  0.21767415  0.27243045    -0.15650
F2962       F  0.82628673  0.18310810  0.27081349    -0.13280
C2963       C  0.73741307  0.18529581  0.27183125     0.24730
C2964       C  0.74783266  0.20305860  0.27863787    -0.23380
C2965       C  0.75684285  0.20314229  0.29848410     0.19640
C2966       C  0.75605011  0.18530162  0.31104282     0.24670
C2967       C  0.74561164  0.16739920  0.30410245    -0.23320
C2968       C  0.73546131  0.16812889  0.28469807     0.19570
F2969       F  0.72346928  0.15222063  0.27794650    -0.13280
F2970       F  0.72927621  0.18437636  0.25244478    -0.15640
F2971       F  0.76613122  0.18533562  0.32950269    -0.15650
F2972       F  0.76702102  0.22021992  0.30533128    -0.13280
C2973       C  0.73165811  0.26242456  0.19951074     0.24730
C2974       C  0.74606869  0.26669266  0.21522536    -0.23380
C2975       C  0.75907398  0.28403433  0.21309446     0.19640
C2976       C  0.75793102  0.29663728  0.19530001     0.24670
C2977       C  0.74349637  0.29222138  0.17949940    -0.23320
C2978       C  0.72993516  0.27532687  0.18225529     0.19570
F2979       F  0.71500763  0.27100084  0.16807268    -0.13280
F2980       F  0.71981801  0.24511581  0.20027491    -0.15640
F2981       F  0.77159897  0.31244495  0.19311937    -0.15650
F2982       F  0.77334348  0.28831612  0.22793417    -0.13280
C2983       C  0.81092130  0.24212116  0.19766371     0.24730
C2984       C  0.80376507  0.23209504  0.17958708    -0.23380
C2985       C  0.78397733  0.22276561  0.18003976     0.19640
C2986       C  0.77105355  0.22516491  0.19710034     0.24670
C2987       C  0.77804552  0.23533460  0.21494574    -0.23320
C2988       C  0.79822316  0.24341038  0.21534676     0.19570
F2989       F  0.80533931  0.25307587  0.23263525    -0.13280
F2990       F  0.82980784  0.25126054  0.19806850    -0.15640
F2991       F  0.75152097  0.21752648  0.19609840    -0.15650
F2992       F  0.77694124  0.21104420  0.16403075    -0.13280
C2993       C  0.75517324  0.18743486  0.81391726     0.24730
C2994       C  0.76630781  0.19442221  0.83143576    -0.23380
C2995       C  0.77618685  0.21395038  0.83026642     0.19640
C2996       C  0.77352557  0.22670794  0.81308075     0.24670
C2997       C  0.76282378  0.21963111  0.79559799    -0.23320
C2998       C  0.75383712  0.19981224  0.79597763     0.19570
F2999       F  0.74329066  0.19273450  0.77920304    -0.13280
F3000       F  0.74512631  0.16898333  0.81423072    -0.15640
F3001       F  0.78142700  0.24619292  0.81360235    -0.15650
F3002       F  0.78884405  0.22085482  0.84557314    -0.13280
C3003       C  0.70133784  0.23966399  0.81327690     0.24730
C3004       C  0.70583367  0.25376082  0.82933692    -0.23380
C3005       C  0.72270938  0.26741570  0.82687506     0.19640
C3006       C  0.73553307  0.26609965  0.80952734     0.24670
C3007       C  0.73154933  0.25151484  0.79389890    -0.23320
C3008       C  0.71412911  0.23857739  0.79566690     0.19570
F3009       F  0.70988853  0.22450691  0.78060040    -0.13280
F3010       F  0.68534942  0.22616399  0.81512367    -0.15640
F3011       F  0.75240277  0.27857288  0.80841168    -0.15650
F3012       F  0.72711330  0.28190964  0.84151206    -0.13280
C3013       C  0.75281338  0.45021369  0.04707213     0.24730
C3014       C  0.76614789  0.45266591  0.03001443    -0.23380
C3015       C  0.78088258  0.43721730  0.02592655     0.19640
C3016       C  0.78246342  0.41981284  0.03865442     0.24670
C3017       C  0.76861829  0.41678184  0.05528006    -0.23320
C3018       C  0.75393816  0.43236278  0.05956523     0.19570
F3019       F  0.73999816  0.42988514  0.07510161    -0.13280
F3020       F  0.73825533  0.46480399  0.05117614    -0.15640
F3021       F  0.79751576  0.40574864  0.03442905    -0.15650
F3022       F  0.79318585  0.43840133  0.00894521    -0.13280
C3023       C  0.74149451  0.43434889  0.98866712     0.24730
C3024       C  0.73423018  0.45222181  0.99857784    -0.23380
C3025       C  0.71388006  0.45258314  0.00621397     0.19640
C3026       C  0.70126123  0.43486765  0.00472877     0.24670
C3027       C  0.70865855  0.41678252  0.99490530    -0.23320
C3028       C  0.72866029  0.41725809  0.98603083     0.19570
F3029       F  0.73597549  0.40128927  0.97444529    -0.13280
F3030       F  0.76116953  0.43340811  0.98138193    -0.15640
F3031       F  0.68217455  0.43528453  0.01344219    -0.15650
F3032       F  0.70649230  0.46988399  0.01562400    -0.13280
C3033       C  0.71502995  0.49678253  0.96561046     0.24730
C3034       C  0.73274075  0.48419324  0.96707926    -0.23380
C3035       C  0.73694061  0.47007017  0.95107246     0.19640
C3036       C  0.72380722  0.46843505  0.93402732     0.24670
C3037       C  0.70661286  0.48171400  0.93185126    -0.23320
C3038       C  0.70208377  0.49564784  0.94806084     0.19570
F3039       F  0.68583163  0.50885796  0.94647761    -0.13280
F3040       F  0.71067687  0.51060009  0.98087318    -0.15640
F3041       F  0.72824164  0.45392839  0.91940971    -0.15650
F3042       F  0.75435327  0.45838302  0.95139111    -0.13280
C3043       C  0.75579056  0.53630040  0.96683741     0.24730
C3044       C  0.76405577  0.51614728  0.96647935    -0.23380
C3045       C  0.77365888  0.50897993  0.94837792     0.19640
C3046       C  0.77536366  0.52169763  0.93106969     0.24670
C3047       C  0.76589296  0.54142667  0.93066560    -0.23320
C3048       C  0.75642207  0.54879582  0.94893096     0.19570
F3049       F  0.74706364  0.56761378  0.94924163    -0.13280
F3050       F  0.74646013  0.54351913  0.98425561    -0.15640
F3051       F  0.78643555  0.51449459  0.91468046    -0.15650
F3052       F  0.78139446  0.48944630  0.94735062    -0.13280
C3053       C  0.79926687  0.03265218  0.00249116     0.24730
C3054       C  0.77993227  0.03231145  0.01246950    -0.23380
C3055       C  0.77383918  0.04951393  0.02423728     0.19640
C3056       C  0.78672775  0.06668109  0.02616638     0.24670
C3057       C  0.80557087  0.06783492  0.01513757    -0.23320
C3058       C  0.81193796  0.05038595  0.00360876     0.19570
F3059       F  0.82990172  0.05075999  0.99274517    -0.13280
F3060       F  0.80553339  0.01607465  0.99115778    -0.15640
F3061       F  0.78053487  0.08224687  0.03891850    -0.15650
F3062       F  0.75505631  0.04998191  0.03357679    -0.13280
C3063       C  0.75852999  0.05151775  0.94992592     0.24730
C3064       C  0.74551747  0.06816906  0.95550873    -0.23380
C3065       C  0.73333361  0.06621409  0.97356980     0.19640
C3066       C  0.73533361  0.04905400  0.98648402     0.24670
C3067       C  0.74816459  0.03244549  0.98095594    -0.23320
C3068       C  0.75962072  0.03367258  0.96246350     0.19570
F3069       F  0.77238744  0.01790299  0.95697086    -0.13280
F3070       F  0.77082577  0.05279783  0.93292151    -0.15640
F3071       F  0.72523451  0.04913336  0.00490229    -0.15650
F3072       F  0.71939272  0.08098908  0.97900105    -0.13280
C3073       C  0.75928410  0.95024344  0.04556725     0.24730
C3074       C  0.74830088  0.96903213  0.04464502    -0.23380
C3075       C  0.73593317  0.97477559  0.06154291     0.19640
C3076       C  0.73395390  0.96183281  0.07871233     0.24670
C3077       C  0.74569895  0.94344614  0.08036213    -0.23320
C3078       C  0.75821944  0.93763745  0.06339330     0.19570
F3079       F  0.77004325  0.92029125  0.06430919    -0.13280
F3080       F  0.77154980  0.94448192  0.02948561    -0.15640
F3081       F  0.72040185  0.96752818  0.09375704    -0.15650
F3082       F  0.72619071  0.99337303  0.06183459    -0.13280
C3083       C  0.79925073  0.99022320  0.04444731     0.24730
C3084       C  0.78010989  0.00055663  0.04411429    -0.23380
C3085       C  0.77439888  0.01280118  0.06111665     0.19640
C3086       C  0.78748651  0.01482465  0.07811543     0.24670
C3087       C  0.80609928  0.00344877  0.07928485    -0.23320
C3088       C  0.81211185  0.99146612  0.06203040     0.19570
F3089       F  0.82984490  0.98023509  0.06252426    -0.13280
F3090       F  0.80511519  0.97842296  0.02804050    -0.15640
F3091       F  0.78167492  0.02787795  0.09359112    -0.15650
F3092       F  0.75577459  0.02244589  0.06159294    -0.13280
C3093       C  0.79651766  0.69981287  0.25212059     0.24730
C3094       C  0.79630325  0.71891507  0.26263610    -0.23380
C3095       C  0.81380486  0.72488039  0.27397696     0.19640
C3096       C  0.83105169  0.71203936  0.27510283     0.24670
C3097       C  0.83207764  0.69351500  0.26346039    -0.23320
C3098       C  0.81437405  0.68728577  0.25229212     0.19570
F3099       F  0.81459060  0.66963690  0.24085019    -0.13280
F3100       F  0.77972963  0.69372393  0.24104783    -0.15640
F3101       F  0.84683178  0.71801759  0.28765390    -0.15650
F3102       F  0.81460092  0.74359664  0.28349915    -0.13280
C3103       C  0.79684102  0.73952508  0.21268315     0.24730
C3104       C  0.79609803  0.75085222  0.23131263    -0.23380
C3105       C  0.81312042  0.76311047  0.23685080     0.19640
C3106       C  0.83037245  0.76437764  0.22401394     0.24670
C3107       C  0.83188502  0.75210950  0.20593739    -0.23320
C3108       C  0.81469293  0.73995155  0.20016118     0.19570
F3109       F  0.81546023  0.72776801  0.18302149    -0.13280
F3110       F  0.78060178  0.72742616  0.20708783    -0.15640
F3111       F  0.84572517  0.77761694  0.22959158    -0.15650
F3112       F  0.81355762  0.77325873  0.25525031    -0.13280
C3113       C  0.75341284  0.78370970  0.21297864     0.24730
C3114       C  0.76422004  0.78280980  0.23188652    -0.23380
C3115       C  0.77646095  0.79973185  0.23778087     0.19640
C3116       C  0.77865184  0.81682480  0.22478064     0.24670
C3117       C  0.76710632  0.81845161  0.20623720    -0.23320
C3118       C  0.75458123  0.80151265  0.20036225     0.19570
F3119       F  0.74289236  0.80240374  0.18290536    -0.13280
F3120       F  0.74122401  0.76762231  0.20709950    -0.15640
F3121       F  0.79226944  0.83176948  0.23055019    -0.15650
F3122       F  0.78592484  0.80008558  0.25654627    -0.13280
C3123       C  0.71338377  0.78217531  0.25263921     0.24730
C3124       C  0.73232447  0.78190230  0.26336404    -0.23380
C3125       C  0.73772145  0.79891544  0.27573122     0.19640
C3126       C  0.72458698  0.81592020  0.27736955     0.24670
C3127       C  0.70621816  0.81704109  0.26556019    -0.23320
C3128       C  0.70046395  0.79972388  0.25355537     0.19570
F3129       F  0.68296210  0.80014078  0.24194957    -0.13280
F3130       F  0.70779538  0.76574876  0.24074109    -0.15640
F3131       F  0.73015184  0.83148298  0.29042518    -0.15650
F3132       F  0.75613385  0.79944119  0.28579051    -0.13280
C3133       C  0.75196156  0.93285919  0.55896209     0.24730
C3134       C  0.76742791  0.91790419  0.55538181    -0.23380
C3135       C  0.78200595  0.92157654  0.53952254     0.19640
C3136       C  0.78054167  0.93911461  0.52689359     0.24670
C3137       C  0.76480622  0.95377891  0.53007095    -0.23320
C3138       C  0.75069178  0.95065868  0.54640225     0.19570
F3139       F  0.73532634  0.96458922  0.54977869    -0.13280
F3140       F  0.73739678  0.92972413  0.57379216    -0.15640
F3141       F  0.79401136  0.94126916  0.51089054    -0.15650
F3142       F  0.79762092  0.90795249  0.53595293    -0.13280
C3143       C  0.72650354  0.76376441  0.32977858     0.24730
C3144       C  0.70743702  0.75307949  0.33089929    -0.23380
C3145       C  0.70089351  0.74179062  0.31332329     0.19640
C3146       C  0.71351388  0.74062560  0.29553548     0.24670
C3147       C  0.73301077  0.75026246  0.29523344    -0.23320
C3148       C  0.73934036  0.76173929  0.31255028     0.19570
F3149       F  0.75824629  0.77083954  0.31298975    -0.13280
F3150       F  0.73292112  0.77643111  0.34531967    -0.15640
F3151       F  0.70698072  0.72964154  0.27881584    -0.15650
F3152       F  0.68271349  0.73130496  0.31353316    -0.13280
C3153       C  0.77959903  0.71046961  0.32831009     0.24730
C3154       C  0.76713366  0.69261859  0.33006066    -0.23380
C3155       C  0.75394656  0.68743321  0.31343930     0.19640
C3156       C  0.75289455  0.70024696  0.29578431     0.24670
C3157       C  0.76464753  0.71856037  0.29473852    -0.23320
C3158       C  0.77774884  0.72361609  0.31130824     0.19570
F3159       F  0.78814882  0.74184675  0.31157382    -0.13280
F3160       F  0.79350284  0.71552921  0.34328048    -0.15640
F3161       F  0.73984594  0.69524323  0.28006788    -0.15650
F3162       F  0.74135679  0.67065277  0.31468733    -0.13280
C3163       C  0.72786068  0.91726993  0.48743187     0.24730
C3164       C  0.70766684  0.91685169  0.49591338    -0.23380
C3165       C  0.69981466  0.93525616  0.50474063     0.19640
C3166       C  0.71218542  0.95319650  0.50575422     0.24670
C3167       C  0.73275322  0.95276800  0.49869426    -0.23320
C3168       C  0.74044301  0.93460928  0.48968624     0.19570
F3169       F  0.76029689  0.93366046  0.48287204    -0.13280
F3170       F  0.73561949  0.90102612  0.47654889    -0.15640
F3171       F  0.70434889  0.97078603  0.51421504    -0.15650
F3172       F  0.68049755  0.93580823  0.51291919    -0.13280
C3173       C  0.02424045  0.76465809  0.44979030     0.24730
C3174       C  0.02931473  0.75157867  0.46639140    -0.23380
C3175       C  0.04787179  0.74022830  0.46554709     0.19640
C3176       C  0.06079465  0.74145480  0.44798041     0.24670
C3177       C  0.05544462  0.75434830  0.43114968    -0.23320
C3178       C  0.03736748  0.76653016  0.43276197     0.19570
F3179       F  0.03214704  0.78033417  0.41773845    -0.13280
F3180       F  0.00614615  0.77526166  0.44967207    -0.15640
F3181       F  0.07795810  0.72939159  0.44710256    -0.15650
F3182       F  0.05314642  0.72754282  0.48148808    -0.13280
C3183       C  0.98623801  0.72623800  0.44892147     0.24730
C3184       C  0.99767591  0.71982687  0.46622016    -0.23380
C3185       C  0.00741978  0.70035396  0.46587939     0.19640
C3186       C  0.00619883  0.68773017  0.44810519     0.24670
C3187       C  0.99471892  0.69427497  0.43070225    -0.23320
C3188       C  0.98405324  0.71333130  0.43179550     0.19570
F3189       F  0.97147752  0.71972483  0.41617351    -0.13280
F3190       F  0.97751702  0.74534681  0.44830913    -0.15640
F3191       F  0.01695859  0.66968174  0.44760747    -0.15650
F3192       F  0.01870768  0.69396652  0.48244222    -0.13280
C3193       C  0.96525879  0.70073364  0.51046582     0.24730
C3194       C  0.96617114  0.71889705  0.49841911    -0.23380
C3195       C  0.94946440  0.72368051  0.48539946     0.19640
C3196       C  0.93240448  0.71056665  0.48408514     0.24670
C3197       C  0.93074904  0.69290846  0.49692318    -0.23320
C3198       C  0.94760967  0.68790724  0.50988895     0.19570
F3199       F  0.94670526  0.67120784  0.52264707    -0.13280
F3200       F  0.98116839  0.69583030  0.52329410    -0.15640
F3201       F  0.91739548  0.71543230  0.47017328    -0.15650
F3202       F  0.94914509  0.74161039  0.47446635    -0.13280
C3203       C  0.96624305  0.74124838  0.54975352     0.24730
C3204       C  0.96596128  0.75061584  0.53005619    -0.23380
C3205       C  0.94819173  0.76124958  0.52366067     0.19640
C3206       C  0.93115497  0.76286656  0.53669273     0.24670
C3207       C  0.93059644  0.75225041  0.55584640    -0.23320
C3208       C  0.94855178  0.74178376  0.56248867     0.19570
F3209       F  0.94872473  0.73134538  0.58075975    -0.13280
F3210       F  0.98334358  0.73092129  0.55624684    -0.15640
F3211       F  0.91509109  0.77482685  0.53028452    -0.15650
F3212       F  0.94701820  0.76970593  0.50443445    -0.13280
C3213       C  0.94383609  0.50564288  0.76955723     0.24730
C3214       C  0.96281230  0.51493916  0.76461962    -0.23380
C3215       C  0.96349000  0.53656221  0.76202303     0.19640
C3216       C  0.94542374  0.54859139  0.76407809     0.24670
C3217       C  0.92612919  0.53916515  0.76829285    -0.23320
C3218       C  0.92571939  0.51735121  0.77072887     0.19570
F3219       F  0.90780176  0.50687402  0.77375815    -0.13280
F3220       F  0.94284902  0.48504757  0.77371092    -0.15640
F3221       F  0.94700364  0.56947548  0.76226952    -0.15650
F3222       F  0.98169115  0.54604566  0.75757580    -0.13280
C3223       C  0.96490647  0.50173931  0.71550150     0.24730
C3224       C  0.96659193  0.48579910  0.73036109    -0.23380
C3225       C  0.95134424  0.47027893  0.73083720     0.19640
C3226       C  0.93484347  0.47067453  0.71700166     0.24670
C3227       C  0.93238078  0.48723395  0.70305519    -0.23320
C3228       C  0.94781151  0.50254804  0.70200293     0.19570
F3229       F  0.94554792  0.51904195  0.68912932    -0.13280
F3230       F  0.97918928  0.51715152  0.71494212    -0.15640
F3231       F  0.92041778  0.45539662  0.71817369    -0.15650
F3232       F  0.95112262  0.45576380  0.74598573    -0.13280
C3233       C  0.00591216  0.45324828  0.71309167     0.24730
C3234       C  0.99774296  0.45292783  0.73329672    -0.23380
C3235       C  0.98844734  0.43475171  0.74066503     0.19640
C3236       C  0.98672958  0.41740272  0.72801826     0.24670
C3237       C  0.99577882  0.41709676  0.70809195    -0.23320
C3238       C  0.00517585  0.43534565  0.70061420     0.19570
F3239       F  0.01431362  0.43565406  0.68166934    -0.13280
F3240       F  0.01515740  0.47065455  0.70576577    -0.15640
F3241       F  0.97587154  0.40095863  0.73539063    -0.15650
F3242       F  0.98058856  0.43387054  0.76017872    -0.13280
C3243       C  0.02459995  0.43779373  0.77907370     0.24730
C3244       C  0.02899340  0.45400702  0.76523183    -0.23380
C3245       C  0.04677661  0.45255875  0.75272056     0.19640
C3246       C  0.05947297  0.43479953  0.75351651     0.24670
C3247       C  0.05458113  0.41826841  0.76695816    -0.23320
C3248       C  0.03740100  0.42044521  0.78026107     0.19570
F3249       F  0.03264443  0.40553640  0.79435499    -0.13280
F3250       F  0.00723992  0.43815780  0.79083852    -0.15640
F3251       F  0.07582799  0.43335419  0.74040952    -0.15650
F3252       F  0.05141284  0.46803656  0.73924380    -0.13280
C3253       C  0.76900605  0.68263250  0.73742396     0.24730
C3254       C  0.77700145  0.70034064  0.74708704    -0.23380
C3255       C  0.79743939  0.69993353  0.75439249     0.19640
C3256       C  0.80945998  0.68179520  0.75272157     0.24670
C3257       C  0.80135036  0.66366901  0.74332719    -0.23320
C3258       C  0.78099026  0.66477392  0.73518810     0.19570
F3259       F  0.77239593  0.64886284  0.72451404    -0.13280
F3260       F  0.74944161  0.68265656  0.72979143    -0.15640
F3261       F  0.82891350  0.68215059  0.76053256    -0.15650
F3262       F  0.80568807  0.71707385  0.76337305    -0.13280
C3263       C  0.73219531  0.66946233  0.78978275     0.24730
C3264       C  0.74637307  0.66773934  0.80627160    -0.23380
C3265       C  0.76001660  0.68429059  0.81014372     0.19640
C3266       C  0.76002092  0.70178672  0.79708930     0.24670
C3267       C  0.74658731  0.70280596  0.77992509    -0.23320
C3268       C  0.73275625  0.68641047  0.77644676     0.19570
F3269       F  0.72071448  0.68595007  0.75927186    -0.13280
F3270       F  0.71819849  0.65421648  0.78597957    -0.15640
F3271       F  0.77383895  0.71724924  0.80052434    -0.15650
F3272       F  0.77421760  0.68293448  0.82559317    -0.13280
C3273       C  0.69716691  0.72386271  0.77147296     0.24730
C3274       C  0.71469116  0.73479731  0.77804006    -0.23380
C3275       C  0.71441735  0.74450410  0.79754937     0.19640
C3276       C  0.69661752  0.74358810  0.81011826     0.24670
C3277       C  0.67901732  0.73236138  0.80356917    -0.23320
C3278       C  0.68000448  0.72187610  0.78433477     0.19570
F3279       F  0.66450307  0.70928881  0.77780284    -0.13280
F3280       F  0.69648921  0.71513463  0.75234093    -0.15640
F3281       F  0.69651152  0.75415472  0.82831002    -0.15650
F3282       F  0.73118279  0.75531488  0.80414523    -0.13280
C3283       C  0.71639892  0.78534195  0.75799468     0.24730
C3284       C  0.71644797  0.76672669  0.74660292    -0.23380
C3285       C  0.69920295  0.76186334  0.73432842     0.19640
C3286       C  0.68214238  0.77501622  0.73366725     0.24670
C3287       C  0.68133605  0.79298705  0.74609989    -0.23320
C3288       C  0.69890628  0.79837671  0.75783571     0.19570
F3289       F  0.69870048  0.81549732  0.77006448    -0.13280
F3290       F  0.73292678  0.79039372  0.76994945    -0.15640
F3291       F  0.66607466  0.76975159  0.72114188    -0.15650
F3292       F  0.69831717  0.74378001  0.72367746    -0.13280
C3293       C  0.75943067  0.78391370  0.71409101     0.24730
C3294       C  0.74846587  0.76509663  0.71482856    -0.23380
C3295       C  0.73644860  0.75929858  0.69770097     0.19640
C3296       C  0.73466757  0.77228069  0.68052265     0.24670
C3297       C  0.74637192  0.79072133  0.67906985    -0.23320
C3298       C  0.75865337  0.79651452  0.69622778     0.19570
F3299       F  0.77049074  0.81386110  0.69547794    -0.13280
F3300       F  0.77138938  0.78971709  0.73039350    -0.15640
F3301       F  0.72128335  0.76661967  0.66531104    -0.15650
F3302       F  0.72676783  0.74065407  0.69729212    -0.13280
C3303       C  0.77410134  0.71959305  0.69934230     0.24730
C3304       C  0.77927284  0.73260298  0.71594277    -0.23380
C3305       C  0.79798488  0.74367417  0.71536100     0.19640
C3306       C  0.81091729  0.74245615  0.69786856     0.24670
C3307       C  0.80534491  0.72990159  0.68088459    -0.23320
C3308       C  0.78717717  0.71784086  0.68228374     0.19570
F3309       F  0.78176618  0.70446619  0.66693595    -0.13280
F3310       F  0.75595173  0.70904317  0.69929121    -0.15640
F3311       F  0.82821742  0.75433519  0.69713552    -0.15650
F3312       F  0.80336369  0.75613007  0.73145014    -0.13280
C3313       C  0.56398457  0.71926017  0.48804345     0.24730
C3314       C  0.54721006  0.73217960  0.48329457    -0.23380
C3315       C  0.54789313  0.74401548  0.46496786     0.19640
C3316       C  0.56539301  0.74331655  0.45192955     0.24670
C3317       C  0.58231202  0.73042458  0.45687974    -0.23320
C3318       C  0.58087171  0.71779142  0.47471388     0.19570
F3319       F  0.59593785  0.70394104  0.47953971    -0.13280
F3320       F  0.56453183  0.70857926  0.50613212    -0.15640
F3321       F  0.56610535  0.75588104  0.43506636    -0.15650
F3322       F  0.53190276  0.75674177  0.46009247    -0.13280
C3323       C  0.54645061  0.78399810  0.50533220     0.24730
C3324       C  0.54713518  0.76431760  0.51469550    -0.23380
C3325       C  0.56501056  0.75831450  0.52537428     0.19640
C3326       C  0.58180079  0.77167824  0.52695948     0.24670
C3327       C  0.58198007  0.79083454  0.51632948    -0.23320
C3328       C  0.56387932  0.79709663  0.50587405     0.19570
F3329       F  0.56331116  0.81537098  0.49547770    -0.13280
F3330       F  0.52919367  0.79015867  0.49505475    -0.15640
F3331       F  0.59799155  0.76560731  0.53893325    -0.15650
F3332       F  0.56647891  0.73919224  0.53399515    -0.13280
C3333       C  0.52955657  0.76006184  0.56336840     0.24730
C3334       C  0.51584388  0.76441399  0.54707816    -0.23380
C3335       C  0.50320148  0.78210602  0.54842459     0.19640
C3336       C  0.50400546  0.79498522  0.56605413     0.24670
C3337       C  0.51774292  0.79047352  0.58243290    -0.23320
C3338       C  0.53099674  0.77322986  0.58043535     0.19570
F3339       F  0.54530090  0.76879998  0.59522172    -0.13280
F3340       F  0.54096831  0.74244648  0.56331779    -0.15640
F3341       F  0.49064755  0.81113918  0.56753345    -0.15650
F3342       F  0.48955850  0.78643232  0.53301688    -0.13280
C3343       C  0.49174791  0.72136658  0.56564124     0.24730
C3344       C  0.48485772  0.73209911  0.54807103    -0.23380
C3345       C  0.46493435  0.74079654  0.54817340     0.19640
C3346       C  0.45240058  0.73946579  0.56599861     0.24670
C3347       C  0.45946046  0.72890880  0.58384393    -0.23320
C3348       C  0.47903975  0.71915516  0.58295191     0.19570
F3349       F  0.48606033  0.70712207  0.59872251    -0.13280
F3350       F  0.51102187  0.71306549  0.56617002    -0.15640
F3351       F  0.43372561  0.74903624  0.56590966    -0.15650
F3352       F  0.45785264  0.75100185  0.53118549    -0.13280
C3353       C  0.52571902  0.54944117  0.77273341     0.24730
C3354       C  0.51418965  0.53220889  0.77912063    -0.23380
C3355       C  0.50422363  0.53274684  0.79849819     0.19640
C3356       C  0.50544386  0.55056229  0.81108492     0.24670
C3357       C  0.51715722  0.56785698  0.80464470    -0.23320
C3358       C  0.52791406  0.56660740  0.78561693     0.19570
F3359       F  0.54076302  0.58200413  0.77928770    -0.13280
F3360       F  0.53459291  0.54991740  0.75367567    -0.15640
F3361       F  0.49456209  0.55113447  0.82907135    -0.15650
F3362       F  0.49280622  0.51629048  0.80488445    -0.13280
C3363       C  0.46400145  0.53186603  0.75901491     0.24730
C3364       C  0.48246648  0.53123885  0.74748885    -0.23380
C3365       C  0.48743992  0.54803094  0.73462744     0.19640
C3366       C  0.47443741  0.56519663  0.73339063     0.24670
C3367       C  0.45655219  0.56659849  0.74586231    -0.23320
C3368       C  0.45115427  0.54948735  0.75831785     0.19570
F3369       F  0.43413834  0.55022294  0.77061229    -0.13280
F3370       F  0.45883371  0.51572347  0.77147776    -0.15640
F3371       F  0.47968099  0.58068778  0.72012242    -0.15650
F3372       F  0.50541126  0.54826512  0.72380273    -0.13280
C3373       C  0.56293476  0.51320425  0.77525048     0.24730
C3374       C  0.54609263  0.50043663  0.78021834    -0.23380
C3375       C  0.54678772  0.48874776  0.79864175     0.19640
C3376       C  0.56444919  0.48926919  0.81145566     0.24670
C3377       C  0.58154632  0.50169827  0.80606417    -0.23320
C3378       C  0.58011894  0.51427280  0.78822625     0.19570
F3379       F  0.59562334  0.52747842  0.78298072    -0.13280
F3380       F  0.56329498  0.52402952  0.75724842    -0.15640
F3381       F  0.56523883  0.47682756  0.82841141    -0.15650
F3382       F  0.53069801  0.47624462  0.80375611    -0.13280
C3383       C  0.56559893  0.43695974  0.75634592     0.24730
C3384       C  0.58317886  0.44388265  0.74531486    -0.23380
C3385       C  0.58200231  0.46325360  0.73513170     0.19640
C3386       C  0.56468670  0.47590013  0.73727312     0.24670
C3387       C  0.54724957  0.46906186  0.74820151    -0.23320
C3388       C  0.54768979  0.44936842  0.75751172     0.19570
F3389       F  0.53098372  0.44243322  0.76820044    -0.13280
F3390       F  0.56584832  0.41856032  0.76652140    -0.15640
F3391       F  0.56513739  0.49509815  0.72871889    -0.15650
F3392       F  0.59749846  0.47013914  0.72272190    -0.13280
C3393       C  0.77256018  0.51213667  0.56252732     0.24730
C3394       C  0.77935315  0.50083691  0.54526903    -0.23380
C3395       C  0.79919341  0.49194118  0.54556093     0.19640
C3396       C  0.81170321  0.49356024  0.56335589     0.24670
C3397       C  0.80457056  0.50441029  0.58093347    -0.23320
C3398       C  0.78515100  0.51435683  0.57988717     0.19570
F3399       F  0.77815418  0.52633618  0.59573111    -0.13280
F3400       F  0.75348048  0.52086664  0.56275630    -0.15640
F3401       F  0.83029043  0.48380674  0.56366908    -0.15650
F3402       F  0.80617097  0.48125199  0.52883254    -0.13280
C3403       C  0.73597011  0.47293302  0.56144980     0.24730
C3404       C  0.74874703  0.46817769  0.54453895    -0.23380
C3405       C  0.76094147  0.45012999  0.54525491     0.19640
C3406       C  0.76064312  0.43730052  0.56292051     0.24670
C3407       C  0.74783423  0.44225684  0.57987693    -0.23320
C3408       C  0.73492967  0.45978934  0.57850011     0.19570
F3409       F  0.72150789  0.46460386  0.59398450    -0.13280
F3410       F  0.72524303  0.49094940  0.56208890    -0.15640
F3411       F  0.77366248  0.42082893  0.56390917    -0.15650
F3412       F  0.77377770  0.44549354  0.52925467    -0.13280
C3413       C  0.79885976  0.53358592  0.50448339     0.24730
C3414       C  0.77925864  0.53269425  0.51384330    -0.23380
C3415       C  0.77256770  0.54950142  0.52585392     0.19640
C3416       C  0.78518377  0.56678978  0.52870655     0.24670
C3417       C  0.80446079  0.56845693  0.51845987    -0.23320
C3418       C  0.81128862  0.55140190  0.50654437     0.19570
F3419       F  0.82963450  0.55209819  0.49637562    -0.13280
F3420       F  0.80576005  0.51735780  0.49301527    -0.15640
F3421       F  0.77838667  0.58176192  0.54183484    -0.15650
F3422       F  0.75356926  0.54931991  0.53477680    -0.13280
C3423       C  0.76104151  0.53244275  0.46277982     0.24730
C3424       C  0.74892656  0.53165128  0.48088235    -0.23380
C3425       C  0.73588933  0.54834114  0.48559352     0.19640
C3426       C  0.73446835  0.56524518  0.47229915     0.24670
C3427       C  0.74735438  0.56677864  0.45471938    -0.23320
C3428       C  0.76045433  0.55002241  0.44985742     0.19570
F3429       F  0.77343892  0.55110066  0.43335533    -0.13280
F3430       F  0.77403225  0.51658239  0.45814278    -0.15640
F3431       F  0.72065692  0.58040242  0.47700188    -0.15650
F3432       F  0.72518142  0.54883315  0.50365670    -0.13280
C3433       C  0.21970489  0.92294073  0.97947066     0.24730
C3434       C  0.20441637  0.92008439  0.99472768    -0.23380
C3435       C  0.20225670  0.93507252  0.01044373     0.19640
C3436       C  0.21585561  0.95209497  0.01132800     0.24670
C3437       C  0.23181553  0.95422751  0.99662750    -0.23320
C3438       C  0.23346964  0.93946933  0.98067458     0.19570
F3439       F  0.24939512  0.94005182  0.96703752    -0.13280
F3440       F  0.22197214  0.90909318  0.96374197    -0.15640
F3441       F  0.21402796  0.96603263  0.02699586    -0.15650
F3442       F  0.18797553  0.93252869  0.02565794    -0.13280
C3443       C  0.26227934  0.95233920  0.04872417     0.24730
C3444       C  0.26500992  0.95115558  0.02713287    -0.23380
C3445       C  0.27014531  0.93199833  0.01826910     0.19640
C3446       C  0.27155750  0.91418256  0.03041093     0.24670
C3447       C  0.26926631  0.91514447  0.05223451    -0.23320
C3448       C  0.26462022  0.93459915  0.06120241     0.19570
F3449       F  0.26273012  0.93668489  0.08205373    -0.13280
F3450       F  0.25760066  0.97076287  0.05774634    -0.15640
F3451       F  0.27478570  0.89602200  0.02034478    -0.15650
F3452       F  0.27451683  0.93057074  0.99773633    -0.13280
C3453       C  0.28064754  0.01367084  0.95064292     0.24730
C3454       C  0.26588869  0.01742792  0.96617116    -0.23380
C3455       C  0.25261401  0.03458478  0.96405140     0.19640
C3456       C  0.25378689  0.04742630  0.94640706     0.24670
C3457       C  0.26843961  0.04337770  0.93072258    -0.23320
C3458       C  0.28228897  0.02673267  0.93350385     0.19570
F3459       F  0.29736231  0.02274931  0.91937806    -0.13280
F3460       F  0.29285333  0.99661048  0.95140747    -0.15640
F3461       F  0.23992479  0.06306246  0.94419914    -0.15650
F3462       F  0.23807245  0.03844639  0.97873244    -0.13280
C3463       C  0.24038724  0.97811798  0.94686791     0.24730
C3464       C  0.23339505  0.98666913  0.96554084    -0.23380
C3465       C  0.21287130  0.99373145  0.96697227     0.19640
C3466       C  0.19979822  0.99306388  0.94951649     0.24670
C3467       C  0.20697857  0.98465326  0.93067089    -0.23320
C3468       C  0.22713759  0.97620400  0.93003943     0.19570
F3469       F  0.23420323  0.96577661  0.91316311    -0.13280
F3470       F  0.26012110  0.97116339  0.94499279    -0.15640
F3471       F  0.18051783  0.00123978  0.95088347    -0.15650
F3472       F  0.20576661  0.00181559  0.98505533    -0.13280
C3473       C  0.23263403  0.27397223  0.68084617     0.24730
C3474       C  0.24478236  0.29210109  0.67920575    -0.23380
C3475       C  0.25751804  0.29753313  0.69615016     0.19640
C3476       C  0.25832614  0.28486786  0.71395704     0.24670
C3477       C  0.24686080  0.26636796  0.71490735    -0.23320
C3478       C  0.23435346  0.26094188  0.69799890     0.19570
F3479       F  0.22428158  0.24252204  0.69764500    -0.13280
F3480       F  0.21893766  0.26861094  0.66580671    -0.15640
F3481       F  0.27082894  0.29026957  0.72998564    -0.15650
F3482       F  0.26980253  0.31455325  0.69522400    -0.13280
C3483       C  0.25191448  0.18823055  0.31341376     0.24730
C3484       C  0.26462385  0.19331172  0.33044989    -0.23380
C3485       C  0.27739343  0.21098809  0.32897874     0.19640
C3486       C  0.27615241  0.22415175  0.31193455     0.24670
C3487       C  0.26356098  0.21918540  0.29495608    -0.23320
C3488       C  0.25160370  0.20098386  0.29567380     0.19570
F3489       F  0.23898587  0.19609014  0.27957125    -0.13280
F3490       F  0.23907414  0.17161973  0.31429296    -0.15640
F3491       F  0.28654923  0.24237067  0.31260595    -0.15650
F3492       F  0.29101871  0.21589177  0.34424931    -0.13280
C3493       C  0.28586762  0.22056648  0.68130430     0.24730
C3494       C  0.30461985  0.23174691  0.68031963    -0.23380
C3495       C  0.31067334  0.24351058  0.69771352     0.19640
C3496       C  0.29773495  0.24476751  0.71523309     0.24670
C3497       C  0.27848212  0.23464110  0.71539818    -0.23320
C3498       C  0.27274916  0.22252835  0.69830488     0.19570
F3499       F  0.25410911  0.21289991  0.69779642    -0.13280
F3500       F  0.27998088  0.20772832  0.66567663    -0.15640
F3501       F  0.30366988  0.25634820  0.73177244    -0.15650
F3502       F  0.32854886  0.25451815  0.69742944    -0.13280
C3503       C  0.23880453  0.26326485  0.31264474     0.24730
C3504       C  0.23251584  0.25144088  0.29554147    -0.23380
C3505       C  0.21305371  0.24174344  0.29601209     0.19640
C3506       C  0.20044018  0.24316667  0.31377661     0.24670
C3507       C  0.20698172  0.25472443  0.33116840    -0.23320
C3508       C  0.22600760  0.26544556  0.32989073     0.19570
F3509       F  0.23241502  0.27825610  0.34532176    -0.13280
F3510       F  0.25763021  0.27253560  0.31286128    -0.15640
F3511       F  0.18228772  0.23263671  0.31417889    -0.15650
F3512       F  0.20653740  0.23047850  0.27947413    -0.13280
C3513       C  0.46533359  0.19895484  0.50855596     0.24730
C3514       C  0.46606352  0.21762957  0.49731084    -0.23380
C3515       C  0.44896168  0.22326803  0.48520549     0.19640
C3516       C  0.43168799  0.21047167  0.48393711     0.24670
C3517       C  0.43018656  0.19234624  0.49612349    -0.23320
C3518       C  0.44744091  0.18647979  0.50816529     0.19570
F3519       F  0.44671764  0.16927374  0.52024329    -0.13280
F3520       F  0.48164187  0.19324781  0.52051962    -0.15640
F3521       F  0.41631354  0.21613948  0.47075188    -0.15650
F3522       F  0.44845028  0.24173708  0.47522581    -0.13280
C3523       C  0.46644772  0.23849904  0.54892516     0.24730
C3524       C  0.46651336  0.24868924  0.52962786    -0.23380
C3525       C  0.44914757  0.26028348  0.52376986     0.19640
C3526       C  0.43215745  0.26192706  0.53687929     0.24670
C3527       C  0.43125561  0.25061062  0.55560148    -0.23320
C3528       C  0.44881613  0.23922548  0.56175754     0.19570
F3529       F  0.44859680  0.22806653  0.57959787    -0.13280
F3530       F  0.48313239  0.22723321  0.55492150    -0.15640
F3531       F  0.41641629  0.27455445  0.53095329    -0.15650
F3532       F  0.44827559  0.26963837  0.50495720    -0.13280
C3533       C  0.68320761  0.22000476  0.28985866     0.24730
C3534       C  0.68132568  0.23404440  0.30648022    -0.23380
C3535       C  0.69762478  0.24796061  0.31040351     0.19640
C3536       C  0.71503725  0.24835144  0.29729628     0.24670
C3537       C  0.71620303  0.23504459  0.28002953    -0.23320
C3538       C  0.70006749  0.22093569  0.27649300     0.19570
F3539       F  0.69987828  0.20882744  0.25933103    -0.13280
F3540       F  0.66823746  0.20572786  0.28600477    -0.15640
F3541       F  0.73032490  0.26231574  0.30087070    -0.15650
F3542       F  0.69611960  0.26200123  0.32601020    -0.13280
C3543       C  0.53623294  0.26428442  0.43152980     0.24730
C3544       C  0.55489320  0.25301898  0.43023512    -0.23380
C3545       C  0.56117943  0.24115132  0.44746310     0.19640
C3546       C  0.54850120  0.23984433  0.46515053     0.24670
C3547       C  0.52932810  0.25009777  0.46566573    -0.23320
C3548       C  0.52341476  0.26238378  0.44875355     0.19570
F3549       F  0.50486127  0.27217593  0.44859202    -0.13280
F3550       F  0.53012410  0.27707657  0.41594974    -0.15640
F3551       F  0.55456400  0.22803900  0.48148325    -0.15650
F3552       F  0.57897511  0.23002648  0.44681394    -0.13280
C3553       C  0.69672879  0.29850224  0.25349893     0.24730
C3554       C  0.67861340  0.29078913  0.24396461    -0.23380
C3555       C  0.67924713  0.27060558  0.23537679     0.19640
C3556       C  0.69655298  0.25804849  0.23784041     0.24670
C3557       C  0.71445765  0.26568384  0.24734249    -0.23320
C3558       C  0.71460486  0.28611845  0.25484473     0.19570
F3559       F  0.73189924  0.29386352  0.26391864    -0.13280
F3560       F  0.69712969  0.31774683  0.26194854    -0.15640
F3561       F  0.69579043  0.23827057  0.23070917    -0.15650
F3562       F  0.66333145  0.26282422  0.22408633    -0.13280
C3563       C  0.33010544  0.21229568  0.27638984     0.24730
C3564       C  0.33143220  0.19403747  0.26438619    -0.23380
C3565       C  0.31412334  0.18822293  0.25239723     0.19640
C3566       C  0.29631859  0.20084121  0.25191684     0.24670
C3567       C  0.29570578  0.21957797  0.26307177    -0.23320
C3568       C  0.31286960  0.22516748  0.27513299     0.19570
F3569       F  0.31340993  0.24359143  0.28520945    -0.13280
F3570       F  0.34560543  0.21797387  0.28942633    -0.15640
F3571       F  0.27996371  0.19517987  0.23999581    -0.15650
F3572       F  0.31472149  0.17091218  0.24045932    -0.13280
C3573       C  0.48318467  0.21217377  0.43039972     0.24730
C3574       C  0.49496603  0.19385314  0.42832038    -0.23380
C3575       C  0.50757735  0.18776950  0.44515150     0.19640
C3576       C  0.50859064  0.19995643  0.46327550     0.24670
C3577       C  0.49748766  0.21863896  0.46468686    -0.23320
C3578       C  0.48512995  0.22473337  0.44788407     0.19570
F3579       F  0.47540959  0.24334090  0.44795651    -0.13280
F3580       F  0.46960196  0.21817397  0.41550386    -0.15640
F3581       F  0.52096895  0.19391435  0.47917225    -0.15650
F3582       F  0.51954343  0.17054862  0.44385362    -0.13280
C3583       C  0.32971584  0.26422334  0.22398116     0.24730
C3584       C  0.33023401  0.25331730  0.20500522    -0.23380
C3585       C  0.31242181  0.24241167  0.19874335     0.19640
C3586       C  0.29493434  0.24163111  0.21176219     0.24670
C3587       C  0.29523895  0.25134021  0.23130784    -0.23320
C3588       C  0.31281027  0.26260706  0.23720910     0.19570
F3589       F  0.31398269  0.27163846  0.25615996    -0.13280
F3590       F  0.34579593  0.27634670  0.23005582    -0.15640
F3591       F  0.27801401  0.23076861  0.20568399    -0.15650
F3592       F  0.31227647  0.23171143  0.18062075    -0.13280
C3593       C  0.22972730  0.41650370  0.48917023     0.24730
C3594       C  0.20916863  0.41694439  0.49673036    -0.23380
C3595       C  0.20147939  0.43584356  0.50459802     0.19640
C3596       C  0.21427468  0.45348625  0.50544453     0.24670
C3597       C  0.23508553  0.45225973  0.49923203    -0.23320
C3598       C  0.24267573  0.43354118  0.49137316     0.19570
F3599       F  0.26263240  0.43197634  0.48495410    -0.13280
F3600       F  0.23744657  0.39981582  0.47895682    -0.15640
F3601       F  0.20654007  0.47162802  0.51275238    -0.15650
F3602       F  0.18183371  0.43722925  0.51183310    -0.13280
C3603       C  0.25347792  0.45072245  0.54572153     0.24730
C3604       C  0.26791592  0.45374234  0.52964371    -0.23380
C3605       C  0.28386643  0.43916926  0.52707549     0.19640
C3606       C  0.28514557  0.42178601  0.53995974     0.24670
C3607       C  0.27019120  0.41817276  0.55547391    -0.23320
C3608       C  0.25456578  0.43308168  0.55851502     0.19570
F3609       F  0.23964889  0.43002271  0.57300534    -0.13280
F3610       F  0.23792274  0.46456041  0.54857104    -0.15640
F3611       F  0.30092018  0.40821611  0.53693539    -0.15650
F3612       F  0.29765738  0.44116595  0.51132598    -0.13280
C3613       C  0.25645704  0.68457482  0.30963059     0.24730
C3614       C  0.24478492  0.66714769  0.30333639    -0.23380
C3615       C  0.23436142  0.66819059  0.28405607     0.19640
C3616       C  0.23689725  0.68515602  0.27089927     0.24670
C3617       C  0.24819950  0.70253453  0.27728814    -0.23320
C3618       C  0.25777016  0.70226378  0.29686621     0.19570
F3619       F  0.26882431  0.71892611  0.30336603    -0.13280
F3620       F  0.26706152  0.68440652  0.32778703    -0.15640
F3621       F  0.22832320  0.68450103  0.25168542    -0.15650
F3622       F  0.22130435  0.65295595  0.27780038    -0.13280
C3623       C  0.26283562  0.54942776  0.44709420     0.24730
C3624       C  0.26692925  0.54070716  0.42739960    -0.23380
C3625       C  0.26902877  0.51891194  0.42610717     0.19640
C3626       C  0.26819945  0.50654943  0.44384227     0.24670
C3627       C  0.26384012  0.51515255  0.46336019    -0.23320
C3628       C  0.26107603  0.53674227  0.46481806     0.19570
F3629       F  0.25704362  0.54557789  0.48349581    -0.13280
F3630       F  0.26104202  0.57024937  0.44939801    -0.15640
F3631       F  0.27266459  0.48608667  0.44199446    -0.15650
F3632       F  0.27160560  0.50912397  0.40766920    -0.13280
C3633       C  0.31015569  0.68522195  0.25759722     0.24730
C3634       C  0.30594368  0.66883643  0.24379786    -0.23380
C3635       C  0.28897930  0.67075341  0.23010815     0.19640
C3636       C  0.27586525  0.68790204  0.23109190     0.24670
C3637       C  0.27962846  0.70385754  0.24535132    -0.23320
C3638       C  0.29708050  0.70262432  0.25832706     0.19570
F3639       F  0.30113861  0.71806741  0.27203453    -0.13280
F3640       F  0.32618593  0.68392944  0.27112695    -0.15640
F3641       F  0.25899901  0.68858139  0.21855220    -0.15650
F3642       F  0.28480913  0.65582272  0.21584971    -0.13280
C3643       C  0.21979064  0.46569419  0.43588730     0.24730
C3644       C  0.20459685  0.48098377  0.43272821    -0.23380
C3645       C  0.20250666  0.49694632  0.44746895     0.19640
C3646       C  0.21609347  0.49804999  0.46450465     0.24670
C3647       C  0.23200796  0.48334075  0.46689787    -0.23320
C3648       C  0.23356728  0.46711953  0.45241839     0.19570
F3649       F  0.24953174  0.45352891  0.45317182    -0.13280
F3650       F  0.22197572  0.44971557  0.42232309    -0.15640
F3651       F  0.21434464  0.51397565  0.47815463    -0.15650
F3652       F  0.18832418  0.51219582  0.44465257    -0.13280
C3653       C  0.21299813  0.28377248  0.25422135     0.24730
C3654       C  0.23246217  0.28321635  0.26391203    -0.23380
C3655       C  0.23898777  0.30034636  0.27553728     0.19640
C3656       C  0.22638865  0.31771646  0.27755917     0.24670
C3657       C  0.20740518  0.31909022  0.26677487    -0.23320
C3658       C  0.20061785  0.30168072  0.25542271     0.19570
F3659       F  0.18250866  0.30223332  0.24480703    -0.13280
F3660       F  0.20632366  0.26722988  0.24307050    -0.15640
F3661       F  0.23298663  0.33321633  0.29018385    -0.15650
F3662       F  0.25791252  0.30051809  0.28462433    -0.13280
C3663       C  0.25140425  0.30232121  0.20124780     0.24730
C3664       C  0.26469242  0.31891270  0.20625211    -0.23380
C3665       C  0.27789064  0.31682824  0.22355951     0.19640
C3666       C  0.27654607  0.29962403  0.23650069     0.24670
C3667       C  0.26334234  0.28309872  0.23162929    -0.23320
C3668       C  0.25094846  0.28441929  0.21374189     0.19570
F3669       F  0.23782669  0.26873296  0.20889085    -0.13280
F3670       F  0.23816905  0.30379216  0.18497534    -0.15640
F3671       F  0.28749236  0.29967961  0.25442750    -0.15650
F3672       F  0.29204252  0.33164555  0.22831083    -0.13280
C3673       C  0.46637704  0.53602523  0.25564292     0.24730
C3674       C  0.46536998  0.51544351  0.26277363    -0.23380
C3675       C  0.44704587  0.50830715  0.27179865     0.19640
C3676       C  0.43023972  0.52150834  0.27431260     0.24670
C3677       C  0.43034889  0.54175299  0.26579824    -0.23320
C3678       C  0.44885630  0.54898346  0.25672003     0.19570
F3679       F  0.44994054  0.56829500  0.24847732    -0.13280
F3680       F  0.48412526  0.54332759  0.24710855    -0.15640
F3681       F  0.41404705  0.51429766  0.28558937    -0.15650
F3682       F  0.44545646  0.48841925  0.27852520    -0.13280
C3683       C  0.45110182  0.46738909  0.23498163     0.24730
C3684       C  0.46601068  0.48288322  0.23180721    -0.23380
C3685       C  0.46334726  0.49690865  0.21529810     0.19640
C3686       C  0.44570382  0.49582512  0.20256924     0.24670
C3687       C  0.43049199  0.48061404  0.20615502    -0.23320
C3688       C  0.43375919  0.46606252  0.22215670     0.19570
F3689       F  0.41991587  0.45062753  0.22569689    -0.13280
F3690       F  0.45283111  0.45403724  0.25116352    -0.15640
F3691       F  0.44298239  0.51032819  0.18756439    -0.15650
F3692       F  0.47757077  0.51200468  0.21190783    -0.13280
C3693       C  0.49146977  0.41353634  0.23051075     0.24730
C3694       C  0.49439709  0.41437240  0.20875554    -0.23380
C3695       C  0.49906619  0.43384643  0.19982811     0.19640
C3696       C  0.50088229  0.45170153  0.21228840     0.24670
C3697       C  0.49763014  0.45061153  0.23382627    -0.23320
C3698       C  0.49238626  0.43143603  0.24260580     0.19570
F3699       F  0.48757566  0.43004127  0.26304401    -0.13280
F3700       F  0.48817277  0.39539397  0.24058460    -0.15640
F3701       F  0.50568770  0.47011010  0.20330757    -0.15650
F3702       F  0.50155322  0.43581193  0.17902741    -0.13280
C3703       C  0.54618912  0.45077974  0.25018398     0.24730
C3704       C  0.53027566  0.45316777  0.26489212    -0.23380
C3705       C  0.52837838  0.43840963  0.28081322     0.19640
C3706       C  0.54191516  0.42169151  0.28204169     0.24670
C3707       C  0.55714011  0.41856797  0.26676186    -0.23320
C3708       C  0.55950014  0.43353535  0.25103660     0.19570
F3709       F  0.57375633  0.43084588  0.23582386    -0.13280
F3710       F  0.54825735  0.46470897  0.23453908    -0.15640
F3711       F  0.53957183  0.40805372  0.29793379    -0.15650
F3712       F  0.51241619  0.43918284  0.29439383    -0.13280
C3713       C  0.50470707  0.28597374  0.04649510     0.24730
C3714       C  0.51454368  0.26657472  0.04557998    -0.23380
C3715       C  0.52608650  0.25988296  0.06272613     0.19640
C3716       C  0.52849912  0.27251735  0.08009750     0.24670
C3717       C  0.51794315  0.29163901  0.08169762    -0.23320
C3718       C  0.50612432  0.29830413  0.06449406     0.19570
F3719       F  0.49538557  0.31634673  0.06522626    -0.13280
F3720       F  0.49322899  0.29266842  0.03018695    -0.15640
F3721       F  0.54146137  0.26584800  0.09525510    -0.15650
F3722       F  0.53480356  0.24076814  0.06293094    -0.13280
C3723       C  0.48691064  0.22323029  0.06118579     0.24730
C3724       C  0.48197144  0.23586850  0.04420758    -0.23380
C3725       C  0.46336352  0.24715388  0.04446684     0.19640
C3726       C  0.45033210  0.24648503  0.06195104     0.24670
C3727       C  0.45570626  0.23428532  0.07924700    -0.23320
C3728       C  0.47373138  0.22201056  0.07820452     0.19570
F3729       F  0.47894396  0.20900170  0.09393639    -0.13280
F3730       F  0.50496438  0.21256410  0.06171935    -0.15640
F3731       F  0.43317125  0.25858070  0.06240052    -0.15650
F3732       F  0.45824195  0.25936453  0.02810981    -0.13280
C3733       C  0.54624116  0.24490768  0.96172395     0.24730
C3734       C  0.54619165  0.23566836  0.98148593    -0.23380
C3735       C  0.56364439  0.22457918  0.98798173     0.19640
C3736       C  0.58069166  0.22241482  0.97500887     0.24670
C3737       C  0.58158468  0.23279391  0.95572272    -0.23320
C3738       C  0.56392937  0.24374571  0.94900746     0.19570
F3739       F  0.56400647  0.25395687  0.93060907    -0.13280
F3740       F  0.52942429  0.25559973  0.95507615    -0.15640
F3741       F  0.59635127  0.21000440  0.98154880    -0.15650
F3742       F  0.56443844  0.21605107  0.00719312    -0.13280
C3743       C  0.54663703  0.28583434  0.00107146     0.24730
C3744       C  0.54581953  0.26760514  0.01302442    -0.23380
C3745       C  0.56250042  0.26276934  0.02603109     0.19640
C3746       C  0.57946562  0.27593380  0.02744946     0.24670
C3747       C  0.58106828  0.29358530  0.01462978    -0.23320
C3748       C  0.56424890  0.29866997  0.00168994     0.19570
F3749       F  0.56523993  0.31536558  0.98892744    -0.13280
F3750       F  0.53072688  0.29072995  0.98823909    -0.15640
F3751       F  0.59456106  0.27104599  0.04127006    -0.15650
F3752       F  0.56292896  0.24472160  0.03675764    -0.13280
C3753       C  0.46776190  0.03699853  0.25792190     0.24730
C3754       C  0.48306551  0.03418597  0.24262380    -0.23380
C3755       C  0.48411835  0.04833337  0.22606954     0.19640
C3756       C  0.47057412  0.06514493  0.22506723     0.24670
C3757       C  0.45588626  0.06858622  0.24083193    -0.23320
C3758       C  0.45426498  0.05408069  0.25705445     0.19570
F3759       F  0.44060973  0.05715268  0.27274735    -0.13280
F3760       F  0.46642725  0.02358947  0.27409817    -0.15640
F3761       F  0.47232431  0.07855323  0.20890993    -0.15650
F3762       F  0.49920588  0.04671839  0.21152834    -0.13280
C3763       C  0.51257041  0.03602931  0.29574327     0.24730
C3764       C  0.51537788  0.03719355  0.27413977    -0.23380
C3765       C  0.52025078  0.05643900  0.26529064     0.19640
C3766       C  0.52141074  0.07429645  0.27745944     0.24670
C3767       C  0.51900346  0.07334698  0.29928544    -0.23320
C3768       C  0.51460966  0.05382244  0.30822540     0.19570
F3769       F  0.51265574  0.05172552  0.32907057    -0.13280
F3770       F  0.50800831  0.01758650  0.30478229    -0.15640
F3771       F  0.52447720  0.09249446  0.26741598    -0.15650
F3772       F  0.52443959  0.05793273  0.24470813    -0.13280
C3773       C  0.56210518  0.02020972  0.27431410     0.24730
C3774       C  0.54691807  0.00494087  0.27732114    -0.23380
C3775       C  0.54910326  0.99108131  0.29406216     0.19640
C3776       C  0.56654342  0.99204183  0.30711838     0.24670
C3777       C  0.58212958  0.00688708  0.30360149    -0.23320
C3778       C  0.57934987  0.02130335  0.28736115     0.19570
F3779       F  0.59357707  0.03638005  0.28381170    -0.13280
F3780       F  0.56073945  0.03354902  0.25807938    -0.15640
F3781       F  0.56871212  0.97773227  0.32239672    -0.15650
F3782       F  0.53458267  0.97626176  0.29739905    -0.13280
C3783       C  0.56672179  0.97910040  0.23841284     0.24730
C3784       C  0.54812017  0.97203997  0.24692635    -0.23380
C3785       C  0.54695678  0.95160469  0.25444798     0.19640
C3786       C  0.56452286  0.93866962  0.25407201     0.24670
C3787       C  0.58323408  0.94577769  0.24533549    -0.23320
C3788       C  0.58359977  0.96589713  0.23657753     0.19570
F3789       F  0.60012790  0.97294594  0.22568818    -0.13280
F3790       F  0.56844572  0.99886643  0.23134814    -0.15640
F3791       F  0.56330727  0.91953224  0.26270105    -0.15650
F3792       F  0.52902213  0.94445275  0.26271257    -0.13280
C3793       C  0.55919059  0.80331890  0.00797079     0.24730
C3794       C  0.55735938  0.81750052  0.99149133    -0.23380
C3795       C  0.54264527  0.81366670  0.97584514     0.19640
C3796       C  0.52924896  0.79677625  0.97721976     0.24670
C3797       C  0.53047700  0.78298816  0.99406415    -0.23320
C3798       C  0.54583128  0.78617533  0.00922834     0.19570
F3799       F  0.54733942  0.77308113  0.02564580    -0.13280
F3800       F  0.57289532  0.80678932  0.02354246    -0.15640
F3801       F  0.51412472  0.79473914  0.96275964    -0.15650
F3802       F  0.54070308  0.82678570  0.95947078    -0.13280
C3803       C  0.71581860  0.94993026  0.00203080     0.24730
C3804       C  0.71639871  0.96892055  0.01272966    -0.23380
C3805       C  0.69928490  0.97477289  0.02472112     0.19640
C3806       C  0.68203336  0.96196423  0.02622233     0.24670
C3807       C  0.68070606  0.94348035  0.01458099    -0.23320
C3808       C  0.69802014  0.93735090  0.00277471     0.19570
F3809       F  0.69742730  0.91976784  0.99124161    -0.13280
F3810       F  0.73219928  0.94397077  0.99029856    -0.15640
F3811       F  0.66651376  0.96791953  0.03910567    -0.15650
F3812       F  0.69885058  0.99334979  0.03452168    -0.13280
C3813       C  0.53688491  0.97140169  0.82815968     0.24730
C3814       C  0.55544483  0.98286861  0.82940809    -0.23380
C3815       C  0.56151546  0.99474763  0.81208760     0.19640
C3816       C  0.54874842  0.99585016  0.79441299     0.24670
C3817       C  0.52965795  0.98542525  0.79399252    -0.23320
C3818       C  0.52393814  0.97319165  0.81100463     0.19570
F3819       F  0.50543584  0.96330183  0.81131560    -0.13280
F3820       F  0.53102172  0.95840315  0.84365444    -0.15640
F3821       F  0.55468390  0.00756146  0.77796985    -0.15650
F3822       F  0.57924560  0.00598200  0.81256547    -0.13280
C3823       C  0.69879393  0.99083462  0.94865193     0.24730
C3824       C  0.68134090  0.00246478  0.95467438    -0.23380
C3825       C  0.68232871  0.01387216  0.97333959     0.19640
C3826       C  0.69928328  0.01214293  0.98649446     0.24670
C3827       C  0.71656513  0.00038101  0.98073367    -0.23320
C3828       C  0.71639865  0.99002131  0.96152560     0.19570
F3829       F  0.73297479  0.97853731  0.95564109    -0.13280
F3830       F  0.69851209  0.97955548  0.93088662    -0.15640
F3831       F  0.69841288  0.02154355  0.00527442    -0.15650
F3832       F  0.66672425  0.02670977  0.97916188    -0.13280
C3833       C  0.49230917  0.82354591  0.02845652     0.24730
C3834       C  0.49452472  0.82279835  0.05030924    -0.23380
C3835       C  0.49889803  0.80338365  0.05948566     0.19640
C3836       C  0.50100775  0.78547302  0.04720904     0.24670
C3837       C  0.49829038  0.78641633  0.02558869    -0.23320
C3838       C  0.49351392  0.80556948  0.01649049     0.19570
F3839       F  0.48938301  0.80684637  0.99588062    -0.13280
F3840       F  0.48935443  0.84164636  0.01820083    -0.15640
F3841       F  0.50549796  0.76711815  0.05646468    -0.15650
F3842       F  0.50073966  0.80150041  0.08036115    -0.13280
C3843       C  0.50304685  0.94053230  0.19439049     0.24730
C3844       C  0.51861629  0.94283021  0.17927667    -0.23380
C3845       C  0.53399640  0.95794303  0.18238905     0.19640
C3846       C  0.53308749  0.97137871  0.19929087     0.24670
C3847       C  0.51723483  0.96965195  0.21412303    -0.23320
C3848       C  0.50241215  0.95383324  0.21171836     0.19570
F3849       F  0.48680918  0.95190816  0.22567188    -0.13280
F3850       F  0.48773872  0.92638494  0.19174413    -0.15640
F3851       F  0.54680834  0.98722235  0.20006594    -0.15650
F3852       F  0.54967407  0.96029080  0.16855498    -0.13280
C3853       C  0.50882317  0.04846887  0.81288985     0.24730
C3854       C  0.49665998  0.04272297  0.83013321    -0.23380
C3855       C  0.48467092  0.02448656  0.82870300     0.19640
C3856       C  0.48614660  0.01154563  0.81148407     0.24670
C3857       C  0.49817905  0.01719376  0.79431190    -0.23320
C3858       C  0.50935355  0.03588740  0.79500962     0.19570
F3859       F  0.52137859  0.04150920  0.77869720    -0.13280
F3860       F  0.52087466  0.06566792  0.81362136    -0.15640
F3861       F  0.47638356  0.99296622  0.81205935    -0.15650
F3862       F  0.47145350  0.01889054  0.84408239    -0.13280
C3863       C  0.52992156  0.17001890  0.97407011     0.24730
C3864       C  0.51781321  0.16780341  0.95597079    -0.23380
C3865       C  0.50455981  0.18426041  0.95034477     0.19640
C3866       C  0.50314223  0.20212765  0.96286553     0.24670
C3867       C  0.51458654  0.20364745  0.98136354    -0.23320
C3868       C  0.52772995  0.18726823  0.98689368     0.19570
F3869       F  0.53803539  0.18754604  0.00520311    -0.13280
F3870       F  0.54404540  0.15544924  0.97958031    -0.15640
F3871       F  0.49015352  0.21768131  0.95728131    -0.15650
F3872       F  0.49237936  0.18278291  0.93326730    -0.13280
C3873       C  0.32930011  0.96568213  0.03784053     0.24730
C3874       C  0.33279509  0.97994615  0.05405957    -0.23380
C3875       C  0.31776002  0.99528552  0.05791754     0.19640
C3876       C  0.30002819  0.99668919  0.04536608     0.24670
C3877       C  0.29706591  0.98287624  0.02874259    -0.23320
C3878       C  0.31183507  0.96732060  0.02519969     0.19570
F3879       F  0.30979839  0.95415960  0.00889568    -0.13280
F3880       F  0.34294381  0.95014599  0.03398957    -0.15640
F3881       F  0.28596223  0.01185585  0.04909383    -0.15650
F3882       F  0.32068042  0.00957711  0.07308739    -0.13280
C3883       C  0.45214772  0.00061486  0.19403161     0.24730
C3884       C  0.46102943  0.00481486  0.17442446    -0.23380
C3885       C  0.48275097  0.00733463  0.17342283     0.19640
C3886       C  0.49485914  0.00667581  0.19131105     0.24670
C3887       C  0.48610811  0.00204452  0.21067398    -0.23320
C3888       C  0.46461079  0.99899613  0.21189335     0.19570
F3889       F  0.45565647  0.99473504  0.23045449    -0.13280
F3890       F  0.43138588  0.99848931  0.19612796    -0.15640
F3891       F  0.51523723  0.01142787  0.18975587    -0.15650
F3892       F  0.49274802  0.01010276  0.15514761    -0.13280
C3893       C  0.33267492  0.02143961  0.98688766     0.24730
C3894       C  0.33261943  0.04154887  0.99561047    -0.23380
C3895       C  0.31415448  0.04898030  0.00452812     0.19640
C3896       C  0.29653417  0.03620323  0.00542620     0.24670
C3897       C  0.29740804  0.01568049  0.99812106    -0.23320
C3898       C  0.31566698  0.00844281  0.98899520     0.19570
F3899       F  0.31706031  0.98863522  0.98199699    -0.13280
F3900       F  0.34918446  0.01416499  0.97609441    -0.15640
F3901       F  0.27886125  0.04355766  0.01407404    -0.15650
F3902       F  0.31333472  0.06819483  0.01304197    -0.13280
C3903       C  0.48802627  0.18680055  0.02362649     0.24730
C3904       C  0.48218911  0.20437694  0.01230282    -0.23380
C3905       C  0.46283351  0.20469819  0.00236029     0.19640
C3906       C  0.44993661  0.18713636  0.00289116     0.24670
C3907       C  0.45616195  0.16926550  0.01375894    -0.23320
C3908       C  0.47491709  0.16977769  0.02495037     0.19570
F3909       F  0.48091692  0.15352858  0.03693546    -0.13280
F3910       F  0.50682390  0.18577172  0.03291290    -0.15640
F3911       F  0.43203398  0.18722423  0.99190620    -0.15650
F3912       F  0.45686090  0.22168507  0.99148379    -0.13280
C3913       C  0.23205452  0.56605615  0.97326257     0.24730
C3914       C  0.24622831  0.56868559  0.95688464    -0.23380
C3915       C  0.26051360  0.55270311  0.95279458     0.19640
C3916       C  0.26103328  0.53487348  0.96541838     0.24670
C3917       C  0.24745959  0.53289454  0.98237796    -0.23320
C3918       C  0.23307167  0.54875230  0.98613953     0.19570
F3919       F  0.22073669  0.54822771  0.00310946    -0.13280
F3920       F  0.21736184  0.58057658  0.97723524    -0.15640
F3921       F  0.27532288  0.51993243  0.96164610    -0.15650
F3922       F  0.27469405  0.55483427  0.93742223    -0.13280
C3923       C  0.27126652  0.55199260  0.02359163     0.24730
C3924       C  0.27863559  0.53371362  0.01453921    -0.23380
C3925       C  0.29912434  0.53300329  0.00728275     0.19640
C3926       C  0.31172058  0.55079325  0.00812634     0.24670
C3927       C  0.30411382  0.56934185  0.01684035    -0.28120
C3928       C  0.28401969  0.56922622  0.02552267     0.19570
F3929       F  0.27649403  0.58573717  0.03617782    -0.13280
F3930       F  0.25152664  0.55323892  0.03064345    -0.15640
F3931       F  0.33097523  0.55000053  0.99981943    -0.15650
F3932       F  0.30665854  0.51529155  0.99880610    -0.13280
C3933       C  0.28851991  0.51845680  0.07954175     0.24730
C3934       C  0.30498393  0.50440761  0.08232301    -0.23380
C3935       C  0.30885610  0.48965061  0.06667237     0.19640
C3936       C  0.29609024  0.48864942  0.04899028     0.24670
C3937       C  0.27917893  0.50220149  0.04679286    -0.23320
C3938       C  0.27551849  0.51699482  0.06234248     0.19570
F3939       F  0.25868202  0.52946695  0.06149531    -0.13280
F3940       F  0.28468982  0.53355954  0.09371699    -0.15640
F3941       F  0.29978207  0.47400311  0.03433470    -0.15650
F3942       F  0.32423078  0.47551779  0.06896360    -0.13280
C3943       C  0.23419040  0.46665617  0.08281410     0.24730
C3944       C  0.24268318  0.44646999  0.08377539    -0.23380
C3945       C  0.25243892  0.43852187  0.06585258     0.19640
C3946       C  0.25417863  0.45073910  0.04784858     0.24670
C3947       C  0.24684762  0.47122834  0.04770680    -0.23320
C3948       C  0.23703278  0.47906280  0.06539765     0.19570
F3949       F  0.23001956  0.49889146  0.06583056    -0.13280
F3950       F  0.22272934  0.47457137  0.09856982    -0.15640
F3951       F  0.26352153  0.44280676  0.03074596    -0.15650
F3952       F  0.26080907  0.41924847  0.06581643    -0.13280
C3953       C  0.99970058  0.53340717  0.29762829     0.24730
C3954       C  0.01384339  0.53209893  0.28106540    -0.23380
C3955       C  0.02790655  0.54837328  0.27800835     0.19640
C3956       C  0.02823999  0.56530824  0.29135566     0.24670
C3957       C  0.01345296  0.56729764  0.30725583    -0.23320
C3958       C  0.99936880  0.55099689  0.31056441     0.19570
F3959       F  0.98449891  0.55267576  0.32532833    -0.13280
F3960       F  0.98555753  0.51814057  0.30056049    -0.15640
F3961       F  0.04266451  0.58028143  0.28812534    -0.15650
F3962       F  0.04038265  0.54877927  0.26115888    -0.13280
C3963       C  0.95101610  0.55167963  0.25255554     0.24730
C3964       C  0.95902049  0.56956450  0.24277555    -0.23380
C3965       C  0.97933294  0.56857936  0.23461672     0.19640
C3966       C  0.99172494  0.55123272  0.23781338     0.24670
C3967       C  0.98386483  0.53365555  0.24778620    -0.23320
C3968       C  0.96327719  0.53377153  0.25472380     0.19570
F3969       F  0.95521387  0.51667852  0.26394794    -0.13280
F3970       F  0.93156696  0.55152654  0.26041054    -0.15640
F3971       F  0.01153743  0.55156362  0.23085493    -0.15650
F3972       F  0.98738788  0.58416684  0.22302918    -0.13280
C3973       C  0.06423329  0.51142123  0.27311191     0.24730
C3974       C  0.04654813  0.50070309  0.27963922    -0.23380
C3975       C  0.04669373  0.49091809  0.29912734     0.19640
C3976       C  0.06456243  0.49141778  0.31163691     0.24670
C3977       C  0.08235114  0.50220511  0.30498793    -0.23320
C3978       C  0.08149704  0.51291154  0.28589357     0.19570
F3979       F  0.09737551  0.52503568  0.27936424    -0.13280
F3980       F  0.06507368  0.52020583  0.25401664    -0.15640
F3981       F  0.06467406  0.48069852  0.32974375    -0.15650
F3982       F  0.02981099  0.48025629  0.30564880    -0.13280
C3983       C  0.06292169  0.47458830  0.23502604     0.24730
C3984       C  0.04612022  0.46926701  0.24771135    -0.23380
C3985       C  0.04683905  0.45058541  0.25893599     0.19640
C3986       C  0.06454552  0.43789122  0.25815217     0.24670
C3987       C  0.08163985  0.44365902  0.24588522    -0.23320
C3988       C  0.08014111  0.46172555  0.23366049     0.19570
F3989       F  0.09558134  0.46728766  0.22049752    -0.13280
F3990       F  0.06315313  0.49275647  0.22449088    -0.15640
F3991       F  0.06535072  0.42064094  0.27016493    -0.15650
F3992       F  0.03070033  0.44506221  0.27120427    -0.13280
C3993       C  0.95103360  0.68505131  0.00643042     0.24730
C3994       C  0.95753322  0.66775423  0.01809304    -0.23380
C3995       C  0.97648839  0.66898907  0.02890780     0.19640
C3996       C  0.98928211  0.68620920  0.02679815     0.24670
C3997       C  0.98309328  0.70321326  0.01478960    -0.23320
C3998       C  0.96369670  0.70273899  0.00494744     0.19570
F3999       F  0.95733449  0.71916226  0.99344304    -0.13280
F4000       F  0.93295991  0.68453575  0.99574751    -0.15640
F4001       F  0.00803582  0.68601598  0.03621889    -0.15650
F4002       F  0.98286344  0.65343715  0.04159074    -0.13280
C4003       C  0.82798051  0.52902903  0.98343852     0.24730
C4004       C  0.83031280  0.54462366  0.99853993    -0.23380
C4005       C  0.81452973  0.54740641  0.01331375     0.19640
C4006       C  0.79716127  0.53422771  0.01337301     0.24670
C4007       C  0.79552074  0.51796864  0.99888007    -0.23320
C4008       C  0.81120989  0.51551749  0.98402754     0.19570
F4009       F  0.81118664  0.49912467  0.97090903    -0.13280
F4010       F  0.84248839  0.52625763  0.96844052    -0.15640
F4011       F  0.78242338  0.53667557  0.02816214    -0.15650
F4012       F  0.81654889  0.56188714  0.02845443    -0.13280
C4013       C  0.00257032  0.70229604  0.96397822     0.24730
C4014       C  0.01409043  0.70315592  0.98247176    -0.23380
C4015       C  0.02658264  0.68623055  0.98782516     0.19640
C4016       C  0.02822782  0.66915190  0.97473756     0.24670
C4017       C  0.01593465  0.66755377  0.95670678    -0.23320
C4018       C  0.00325332  0.68451251  0.95129109     0.19570
F4019       F  0.99086985  0.68358396  0.93432099    -0.13280
F4020       F  0.99008447  0.71834960  0.95865769    -0.15640
F4021       F  0.04191039  0.65406982  0.97998793    -0.15650
F4022       F  0.03665947  0.68573856  0.00625070    -0.13280
C4023       C  0.97830992  0.52588681  0.82878646     0.24730
C4024       C  0.99207943  0.54261539  0.83172994    -0.23380
C4025       C  0.00681413  0.54682762  0.81618818     0.19640
C4026       C  0.00822218  0.53406579  0.79856283     0.24670
C4027       C  0.99500925  0.51690721  0.79623431    -0.23320
C4028       C  0.97997136  0.51305482  0.81143191     0.19570
F4029       F  0.96724965  0.49639016  0.80980474    -0.13280
F4030       F  0.96321395  0.52174791  0.84283573    -0.15640
F4031       F  0.02274817  0.53818523  0.78393510    -0.15650
F4032       F  0.02050612  0.56260301  0.81848121    -0.13280
C4033       C  0.03447634  0.47345399  0.83116854     0.24730
C4034       C  0.05407376  0.48319644  0.83145407    -0.23380
C4035       C  0.06070508  0.49366309  0.81344096     0.19640
C4036       C  0.04773642  0.49480513  0.79592372     0.24670
C4037       C  0.02773004  0.48627985  0.79651763    -0.23320
C4038       C  0.02116910  0.47592949  0.81440863     0.19570
F4039       F  0.00167581  0.46822039  0.81574406    -0.13280
F4040       F  0.02799908  0.46129047  0.84708284    -0.15640
F4041       F  0.05439046  0.50480784  0.77864757    -0.15650
F4042       F  0.07931101  0.50336712  0.81297308    -0.13280
C4043       C  0.19880721  0.49248015  0.95012707     0.24730
C4044       C  0.18057728  0.50235599  0.95693639    -0.23380
C4045       C  0.18079876  0.51234887  0.97645512     0.19640
C4046       C  0.19776595  0.51064482  0.98957842     0.24670
C4047       C  0.21583871  0.50071688  0.98294517    -0.23320
C4048       C  0.21645042  0.49198723  0.96295695     0.19570
F4049       F  0.23383511  0.48229529  0.95624978    -0.13280
F4050       F  0.19933949  0.48262225  0.93154198    -0.15640
F4051       F  0.19633094  0.51849433  0.00905939    -0.15650
F4052       F  0.16454526  0.52390692  0.98309693    -0.13280
C4053       C  0.83325899  0.47361148  0.03315997     0.24730
C4054       C  0.83382257  0.48109175  0.05384254    -0.23380
C4055       C  0.81541527  0.48960259  0.06211001     0.19640
C4056       C  0.79743987  0.49110301  0.04985867     0.24670
C4057       C  0.79769755  0.48481484  0.02900894    -0.23320
C4058       C  0.81579804  0.47623619  0.02081952     0.19570
F4059       F  0.81650821  0.46993966  0.00072855    -0.13280
F4060       F  0.84929465  0.46312013  0.02461119    -0.15640
F4061       F  0.77988739  0.49907091  0.05820638    -0.15650
F4062       F  0.81469438  0.49672282  0.08188281    -0.13280
C4063       C  0.97472225  0.51673550  0.18297594     0.24730
C4064       C  0.95701808  0.50406806  0.18098855    -0.23380
C4065       C  0.95181983  0.49080150  0.19757876     0.19640
C4066       C  0.96452581  0.48971381  0.21527815     0.24670
C4067       C  0.98273434  0.50155217  0.21649004    -0.23320
C4068       C  0.98767538  0.51500095  0.20015418     0.19570
F4069       F  0.00548964  0.52608435  0.20045909    -0.13280
F4070       F  0.97974156  0.53087564  0.16820542    -0.15640
F4071       F  0.95940284  0.47668186  0.23098522    -0.15650
F4072       F  0.93503982  0.47823847  0.19635306    -0.13280
C4073       C  0.02588963  0.47622864  0.19889773     0.24730
C4074       C  0.01426364  0.46990097  0.21608239    -0.23380
C4075       C  0.00429828  0.45055010  0.21561112     0.19640
C4076       C  0.00554693  0.43793887  0.19783727     0.24670
C4077       C  0.01738902  0.44429718  0.18060064    -0.23320
C4078       C  0.02825961  0.46324330  0.18185822     0.19570
F4079       F  0.04130741  0.46943173  0.16655930    -0.13280
F4080       F  0.03462388  0.49533370  0.19832015    -0.15640
F4081       F  0.99454546  0.42004326  0.19723113    -0.15650
F4082       F  0.99280297  0.44425320  0.23205914    -0.13280
C4083       C  0.21422581  0.45189497  0.00252707     0.24730
C4084       C  0.21579148  0.46958118  0.01519731    -0.23380
C4085       C  0.19974376  0.47392786  0.02917826     0.19640
C4086       C  0.18263204  0.46088526  0.03070754     0.24670
C4087       C  0.18035487  0.44369565  0.01734825    -0.23320
C4088       C  0.19658384  0.43911008  0.00346045     0.19570
F4089       F  0.19503494  0.42288453  0.99015922    -0.13280
F4090       F  0.22951842  0.44738244  0.98883341    -0.15640
F4091       F  0.16817126  0.46534433  0.04531831    -0.15650
F4092       F  0.20012493  0.49138370  0.04087002    -0.13280
C4093       C  0.23287273  0.05127812  0.48896281     0.24730
C4094       C  0.24566167  0.03460833  0.48354796    -0.23380
C4095       C  0.25688150  0.03553925  0.46488956     0.19640
C4096       C  0.25553745  0.05312895  0.45201606     0.24670
C4097       C  0.24247219  0.06979359  0.45740925    -0.23320
C4098       C  0.23059325  0.06816521  0.47571960     0.19570
F4099       F  0.21662333  0.08296099  0.48102157    -0.13280
F4100       F  0.22295694  0.05158898  0.50748688    -0.15640
F4101       F  0.26760128  0.05414690  0.43482687    -0.15650
F4102       F  0.26959808  0.01969413  0.45950044    -0.13280
C4103       C  0.29628055  0.03476855  0.50548142     0.24730
C4104       C  0.27704404  0.03425243  0.51560376    -0.23380
C4105       C  0.27117695  0.05107481  0.52801407     0.19640
C4106       C  0.28425621  0.06804737  0.53047033     0.24670
C4107       C  0.30308648  0.06936389  0.51941807    -0.23320
C4108       C  0.30914370  0.05228927  0.50716434     0.19570
F4109       F  0.32703633  0.05279692  0.49619380    -0.13280
F4110       F  0.30232088  0.01852848  0.49354911    -0.15640
F4111       F  0.27830688  0.08319190  0.54382720    -0.15650
F4112       F  0.25248785  0.05130385  0.53756125    -0.13280
C4113       C  0.23228738  0.96016032  0.57946725     0.24730
C4114       C  0.24559803  0.94288583  0.58064264    -0.23380
C4115       C  0.25855381  0.93853081  0.56362733     0.19640
C4116       C  0.25864747  0.95170721  0.54619779     0.24670
C4117       C  0.24618743  0.96959126  0.54580589    -0.23320
C4118       C  0.23326670  0.97375307  0.56275466     0.19570
F4119       F  0.22238070  0.99165711  0.56380927    -0.13280
F4120       F  0.21856276  0.96434998  0.59486590    -0.15640
F4121       F  0.27156399  0.94757711  0.53012675    -0.15650
F4122       F  0.27190413  0.92231724  0.56433337    -0.13280
C4123       C  0.27009276  0.01358445  0.56434567     0.24730
C4124       C  0.27674568  0.00229776  0.54703781    -0.23380
C4125       C  0.29647096  0.99317692  0.54733407     0.19640
C4126       C  0.30904994  0.99467611  0.56510952     0.24670
C4127       C  0.30224429  0.00583684  0.58267773    -0.23320
C4128       C  0.28287342  0.01597586  0.58156961     0.19570
F4129       F  0.27612826  0.02854950  0.59703711    -0.13280
F4130       F  0.25098158  0.02225894  0.56470480    -0.15640
F4131       F  0.32751074  0.98470025  0.56525414    -0.15650
F4132       F  0.30331909  0.98243800  0.53058436    -0.13280
C4133       C  0.02790911  0.96138166  0.68276938     0.24730
C4134       C  0.01590627  0.94320782  0.68101972    -0.23380
C4135       C  0.00312695  0.93748987  0.69778899     0.19640
C4136       C  0.00200674  0.95008578  0.71558073     0.24670
C4137       C  0.01322539  0.96872099  0.71659470    -0.23320
C4138       C  0.02593071  0.97431553  0.69991112     0.19570
F4139       F  0.03588584  0.99280173  0.69975390    -0.13280
F4140       F  0.04151647  0.96693614  0.66771255    -0.15640
F4141       F  0.98939464  0.94454681  0.73147112    -0.15650
F4142       F  0.99099756  0.92036863  0.69659817    -0.13280
C4143       C  0.00897607  0.80198443  0.56069767     0.24730
C4144       C  0.99507797  0.81816922  0.55608387    -0.23380
C4145       C  0.98183058  0.81596471  0.53884629     0.19640
C4146       C  0.98351832  0.79895224  0.52569990     0.24670
C4147       C  0.99735440  0.78282511  0.53016348    -0.23320
C4148       C  0.00994051  0.78432713  0.54789898     0.19570
F4149       F  0.02367179  0.76904904  0.55234181    -0.13280
F4150       F  0.02230060  0.80367084  0.57687724    -0.15640
F4151       F  0.97221527  0.79881914  0.50800440    -0.15650
F4152       F  0.96728969  0.83049371  0.53438137    -0.13280
C4153       C  0.95002002  0.99190585  0.69751285     0.24730
C4154       C  0.95615194  0.00425529  0.68049351    -0.23380
C4155       C  0.97495823  0.01532166  0.68207062     0.19640
C4156       C  0.98782614  0.01295253  0.69926452     0.24670
C4157       C  0.98179793  0.00061571  0.71610060    -0.23320
C4158       C  0.96266032  0.99032326  0.71525348     0.19570
F4159       F  0.95646335  0.97836663  0.73142322    -0.13280
F4160       F  0.93220686  0.98082554  0.69681623    -0.15640
F4161       F  0.00647197  0.02256564  0.69924067    -0.15650
F4162       F  0.98105074  0.02874790  0.66705640    -0.13280
C4163       C  0.83336725  0.98042478  0.53203478     0.24730
C4164       C  0.83242321  0.98287254  0.55384732    -0.23380
C4165       C  0.81293700  0.98724227  0.56279128     0.19640
C4166       C  0.79513166  0.98909446  0.55030120     0.24670
C4167       C  0.79631664  0.98622758  0.52870336    -0.23320
C4168       C  0.81554259  0.98140219  0.51988950     0.19570
F4169       F  0.81705140  0.97699582  0.49936390    -0.13280
F4170       F  0.85154729  0.97752066  0.52197440    -0.15640
F4171       F  0.77668010  0.99351131  0.55931008    -0.15650
F4172       F  0.81092441  0.98935132  0.58363146    -0.13280
C4173       C  0.81166610  0.04896187  0.51396918     0.24730
C4174       C  0.82706835  0.04739729  0.49863360    -0.23380
C4175       C  0.82466331  0.03263983  0.48275391     0.19640
C4176       C  0.80822857  0.01871136  0.48301283     0.24670
C4177       C  0.79300638  0.01974481  0.49855147    -0.23320
C4178       C  0.79467541  0.03527307  0.51385067     0.19570
F4179       F  0.78040288  0.03645503  0.52924522    -0.13280
F4180       F  0.81381990  0.06263664  0.52982523    -0.15640
F4181       F  0.80838125  0.00305214  0.46903482    -0.15650
F4182       F  0.83901374  0.03087742  0.46744930    -0.13280
C4183       C  0.06030304  0.80232784  0.50508302     0.24730
C4184       C  0.05286215  0.81995314  0.49446572    -0.23380
C4185       C  0.03333457  0.81864452  0.48466906     0.19640
C4186       C  0.02095424  0.80115650  0.48700018     0.24670
C4187       C  0.02821111  0.78377349  0.49777918    -0.23320
C4188       C  0.04813656  0.78427713  0.50646408     0.19570
F4189       F  0.05551832  0.76750796  0.51679586    -0.13280
F4190       F  0.07894441  0.80271093  0.51472626    -0.15640
F4191       F  0.00161132  0.80137085  0.47884189    -0.15650
F4192       F  0.02601452  0.83422701  0.47257003    -0.13280
C4193       C  0.19511514  0.93947263  0.50402875     0.24730
C4194       C  0.17779194  0.94551621  0.51588637    -0.23380
C4195       C  0.17918931  0.96387468  0.52773318     0.19640
C4196       C  0.19645701  0.97666685  0.52633578     0.24670
C4197       C  0.21363946  0.97081244  0.51444961    -0.23320
C4198       C  0.21300096  0.95195135  0.50353074     0.19570
F4199       F  0.22939716  0.94604756  0.49179292    -0.13280
F4200       F  0.19448577  0.92205197  0.49225585    -0.15640
F4201       F  0.19597711  0.99524258  0.53614924    -0.15650
F4202       F  0.16376976  0.96971560  0.54078274    -0.13280
C4203       C  0.19594365  0.99260008  0.45128481     0.24730
C4204       C  0.17828573  0.00375565  0.45756449    -0.23380
C4205       C  0.17926679  0.01537659  0.47608275     0.19640
C4206       C  0.19652939  0.01429758  0.48890973     0.24670
C4207       C  0.21391349  0.00272288  0.48304193    -0.23320
C4208       C  0.21372123  0.99224970  0.46390536     0.19570
F4209       F  0.23043258  0.98102992  0.45789578    -0.13280
F4210       F  0.19566560  0.98121807  0.43358432    -0.15640
F4211       F  0.19581286  0.02398793  0.50755042    -0.15650
F4212       F  0.16330815  0.02767104  0.48211700    -0.13280
C4213       C  0.95114257  0.18514880  0.50395159     0.24730
C4214       C  0.95546187  0.16935312  0.51838077    -0.23380
C4215       C  0.97257873  0.17173489  0.53176565     0.19640
C4216       C  0.98561211  0.18890431  0.53007897     0.24670
C4217       C  0.98170609  0.20431381  0.51523822    -0.23320
C4218       C  0.96421439  0.20249266  0.50238835     0.19570
F4219       F  0.96006053  0.21734339  0.48806837    -0.13280
F4220       F  0.93498959  0.18329418  0.49063276    -0.15640
F4221       F  0.00247179  0.19017305  0.54257842    -0.15650
F4222       F  0.97691905  0.15724013  0.54641995    -0.13280
C4223       C  0.02387462  0.18570162  0.49025572     0.24730
C4224       C  0.01302006  0.20310007  0.48321592    -0.23380
C4225       C  0.00402832  0.20268737  0.46337549     0.19640
C4226       C  0.00536691  0.18475736  0.45099704     0.24670
C4227       C  0.01644629  0.16725053  0.45803120    -0.23320
C4228       C  0.02642804  0.16846515  0.47752297     0.19570
F4229       F  0.03899088  0.15308566  0.48442308    -0.13280
F4230       F  0.03195807  0.18528642  0.50969103    -0.15640
F4231       F  0.99529688  0.18439838  0.43253747    -0.15650
F4232       F  0.99343173  0.21941449  0.45629767    -0.13280
C4233       C  0.94981161  0.23638486  0.56411720     0.24730
C4234       C  0.95904478  0.23176353  0.58345333    -0.23380
C4235       C  0.98082061  0.22957940  0.58411858     0.19640
C4236       C  0.99266729  0.23100166  0.56610013     0.24670
C4237       C  0.98354509  0.23615287  0.54705779    -0.23320
C4238       C  0.96199270  0.23882481  0.54618741     0.19570
F4239       F  0.95272164  0.24356965  0.52790295    -0.13280
F4240       F  0.92898446  0.23814324  0.56234540    -0.15640
F4241       F  0.01319039  0.22677016  0.56722329    -0.15650
F4242       F  0.99109620  0.22649178  0.60219432    -0.13280
C4243       C  0.99502950  0.29887410  0.56124152     0.24730
C4244       C  0.00964472  0.29772490  0.57733073    -0.23380
C4245       C  0.02623280  0.28379427  0.57552796     0.19640
C4246       C  0.02729675  0.27002868  0.55895109     0.24670
C4247       C  0.01238249  0.27051205  0.54307212    -0.23320
C4248       C  0.99648588  0.28542051  0.54412241     0.19570
F4249       F  0.98162193  0.28595901  0.52925562    -0.13280
F4250       F  0.97847403  0.31169615  0.56294322    -0.15640
F4251       F  0.04169994  0.25485309  0.55979637    -0.15650
F4252       F  0.04065508  0.28237334  0.59081137    -0.13280
C4253       C  0.06116118  0.22192910  0.48596800     0.24730
C4254       C  0.04456867  0.23506003  0.48110252    -0.23380
C4255       C  0.04548050  0.24685468  0.46276012     0.19640
C4256       C  0.06313777  0.24612930  0.44995911     0.24670
C4257       C  0.08004312  0.23339374  0.45527046    -0.23320
C4258       C  0.07835220  0.22067467  0.47300876     0.19570
F4259       F  0.09356064  0.20709343  0.47816475    -0.13280
F4260       F  0.06126457  0.21091192  0.50386797    -0.15640
F4261       F  0.06408300  0.25862803  0.43305763    -0.15650
F4262       F  0.02957260  0.25959960  0.45767147    -0.13280
C4263       C  0.06314238  0.26080899  0.52235703     0.24730
C4264       C  0.04535729  0.26747776  0.51193459    -0.23380
C4265       C  0.04534701  0.28709501  0.50242684     0.19640
C4266       C  0.06319895  0.29962855  0.50296862     0.24670
C4267       C  0.08101399  0.29292972  0.51368587    -0.23320
C4268       C  0.08022466  0.27372679  0.52421118     0.19570
F4269       F  0.09592514  0.26727023  0.53662105    -0.13280
F4270       F  0.06400070  0.24162143  0.53096969    -0.15640
F4271       F  0.06324419  0.31784055  0.49245070    -0.15650
F4272       F  0.02834286  0.29372783  0.49202311    -0.13280
C4273       C  0.53020935  0.45821004  0.68350487     0.24730
C4274       C  0.51702591  0.44088989  0.68183351    -0.23380
C4275       C  0.50336710  0.43654285  0.69829436     0.19640
C4276       C  0.50253429  0.44972625  0.71569200     0.24670
C4277       C  0.51504191  0.46755116  0.71664961    -0.23320
C4278       C  0.52866954  0.47170699  0.70026086     0.19570
F4279       F  0.53984617  0.48945612  0.69985060    -0.13280
F4280       F  0.54444285  0.46246600  0.66860084    -0.15640
F4281       F  0.48897705  0.44558228  0.73122122    -0.15650
F4282       F  0.49009680  0.42029253  0.69707064    -0.13280
C4283       C  0.48392955  0.31364362  0.53921435     0.24730
C4284       C  0.49673334  0.31508448  0.55687615    -0.23380
C4285       C  0.50986933  0.29831175  0.56162502     0.19640
C4286       C  0.51058391  0.28084973  0.54851638     0.24670
C4287       C  0.49857291  0.28018836  0.53032449    -0.23320
C4288       C  0.48550426  0.29689320  0.52573935     0.19570
F4289       F  0.47485753  0.29754152  0.50764318    -0.13280
F4290       F  0.46998177  0.32870959  0.53462622    -0.15640
F4291       F  0.52355846  0.26496218  0.55310213    -0.15650
F4292       F  0.52271827  0.29923278  0.57824775    -0.13280
C4293       C  0.52950199  0.66501371  0.47836595     0.24730
C4294       C  0.51854799  0.66356850  0.45943968    -0.23380
C4295       C  0.50677296  0.68086172  0.45301908     0.19640
C4296       C  0.50573787  0.69880937  0.46544151     0.24670
C4297       C  0.51593995  0.69956989  0.48468432    -0.23320
C4298       C  0.52749734  0.68235022  0.49110338     0.19570
F4299       F  0.53656641  0.68202210  0.51007358    -0.13280
F4300       F  0.54241612  0.64970134  0.48474642    -0.15640
F4301       F  0.49422558  0.71519350  0.45903281    -0.15650
F4302       F  0.49566470  0.68022449  0.43517572    -0.13280
C4303       C  0.50936773  0.54564523  0.31600504     0.24730
C4304       C  0.49460106  0.54159642  0.33158731    -0.23380
C4305       C  0.48028176  0.52544434  0.32832254     0.19640
C4306       C  0.48154819  0.51282623  0.31079514     0.24670
C4307       C  0.49645661  0.51653977  0.29538541    -0.23320
C4308       C  0.51020398  0.53325548  0.29801170     0.19570
F4309       F  0.52495144  0.53703960  0.28351840    -0.13280
F4310       F  0.52369000  0.56078988  0.31864833    -0.15640
F4311       F  0.46891943  0.49610771  0.30961954    -0.15650
F4312       F  0.46511911  0.52147937  0.34235339    -0.13280
C4313       C  0.68240799  0.51187644  0.47360854     0.24730
C4314       C  0.68176297  0.50016867  0.45515181    -0.23380
C4315       C  0.69963093  0.48936757  0.44892518     0.19640
C4316       C  0.71733038  0.48934200  0.46164271     0.24670
C4317       C  0.71718187  0.49980986  0.48078201    -0.23320
C4318       C  0.69959933  0.51114117  0.48652313     0.19570
F4319       F  0.69859779  0.52082485  0.50515720    -0.13280
F4320       F  0.66606825  0.52370089  0.47958016    -0.15640
F4321       F  0.73425096  0.47835871  0.45578772    -0.15650
F4322       F  0.69956202  0.47789919  0.43127675    -0.13280
C4323       C  0.53371620  0.47531748  0.33219488     0.24730
C4324       C  0.55394926  0.48358226  0.33194639    -0.23380
C4325       C  0.56167074  0.49164516  0.31316074     0.19640
C4326       C  0.54903312  0.49221892  0.29538033     0.24670
C4327       C  0.52842261  0.48533615  0.29637361    -0.23320
C4328       C  0.52092774  0.47702158  0.31497182     0.19570
F4329       F  0.50112298  0.47017375  0.31642183    -0.13280
F4330       F  0.52613397  0.46529100  0.34908578    -0.15640
F4331       F  0.55663257  0.50009611  0.27740941    -0.15650
F4332       F  0.58105323  0.49963207  0.31216168    -0.13280
C4333       C  0.45163930  0.49274169  0.69692697     0.24730
C4334       C  0.45885473  0.50343340  0.67920021    -0.23380
C4335       C  0.47853422  0.51297708  0.68032997     0.19640
C4336       C  0.49107330  0.51058336  0.69776783     0.24670
C4337       C  0.48396167  0.49983816  0.71524856    -0.23320
C4338       C  0.46401166  0.49122340  0.71486814     0.19570
F4339       F  0.45671239  0.48095612  0.73172231    -0.13280
F4340       F  0.43291232  0.48328300  0.69684859    -0.15640
F4341       F  0.51036951  0.51884461  0.69749775    -0.15650
F4342       F  0.48580780  0.52507010  0.66473321    -0.13280
C4343       C  0.33665914  0.48064602  0.53032769     0.24730
C4344       C  0.33542996  0.48251359  0.55217331    -0.23380
C4345       C  0.31586180  0.48656339  0.56102223     0.19640
C4346       C  0.29817090  0.48851420  0.54841402     0.24670
C4347       C  0.29954578  0.48603753  0.52675925    -0.23320
C4348       C  0.31894452  0.48173629  0.51799748     0.19570
F4349       F  0.32071525  0.47784896  0.49737768    -0.13280
F4350       F  0.35502754  0.47812518  0.52049253    -0.15640
F4351       F  0.27961131  0.49255658  0.55737807    -0.15650
F4352       F  0.31365891  0.48813673  0.58189456    -0.13280
C4353       C  0.47654934  0.66638400  0.53033933     0.24730
C4354       C  0.45844906  0.66509320  0.51819405    -0.23380
C4355       C  0.45282679  0.68222050  0.50586970     0.19640
C4356       C  0.46563083  0.69981750  0.50501747     0.24670
C4357       C  0.48423737  0.70040355  0.51627937    -0.23320
C4358       C  0.48946165  0.68359937  0.52902817     0.19570
F4359       F  0.50751323  0.68346551  0.53973170    -0.13280
F4360       F  0.48202938  0.65078112  0.54338154    -0.15640
F4361       F  0.46026373  0.71599793  0.49268437    -0.15650
F4362       F  0.43561849  0.68152597  0.49383642    -0.13280
C4363       C  0.32680732  0.53069319  0.47749643     0.24730
C4364       C  0.33052791  0.54498853  0.49355951    -0.23380
C4365       C  0.31616742  0.54663828  0.50985081     0.19640
C4366       C  0.29897654  0.53334739  0.51058205     0.24670
C4367       C  0.29602183  0.51821752  0.49511371    -0.23320
C4368       C  0.30994196  0.51729221  0.47839681     0.19570
F4369       F  0.30819905  0.50228754  0.46374186    -0.13280
F4370       F  0.34019128  0.52895316  0.46133864    -0.15640
F4371       F  0.28572762  0.53454497  0.52687542    -0.15650
F4372       F  0.31959283  0.55993825  0.52580565    -0.13280
C4373       C  0.68222682  0.46127289  0.52646634     0.24730
C4374       C  0.68081926  0.44274793  0.51484952    -0.23380
C4375       C  0.69808736  0.43680388  0.50282389     0.19640
C4376       C  0.71588519  0.44944930  0.50201938     0.24670
C4377       C  0.71653056  0.46841459  0.51278236    -0.23320
C4378       C  0.69937850  0.47421658  0.52474302     0.19570
F4379       F  0.69881960  0.49287095  0.53438840    -0.13280
F4380       F  0.66700411  0.46709988  0.53974199    -0.15640
F4381       F  0.73223110  0.44352959  0.49021920    -0.15650
F4382       F  0.69754540  0.41923131  0.49127774    -0.13280
C4383       C  0.53586560  0.31573167  0.48427291     0.24730
C4384       C  0.55508815  0.31684137  0.49470212    -0.23380
C4385       C  0.56170372  0.29929723  0.50599675     0.19640
C4386       C  0.54905842  0.28154745  0.50734997     0.24670
C4387       C  0.52945748  0.28124694  0.49791301    -0.23320
C4388       C  0.52301201  0.29855574  0.48651342     0.19570
F4389       F  0.50398481  0.29901684  0.47765908    -0.13280
F4390       F  0.52932171  0.33119228  0.47158685    -0.15640
F4391       F  0.55570612  0.26484065  0.51826708    -0.15650
F4392       F  0.58001941  0.29946977  0.51625579    -0.13280
C4393       C  0.96464755  0.03625247  0.25320823     0.24730
C4394       C  0.96528275  0.01728479  0.26394380    -0.23380
C4395       C  0.94819498  0.01144122  0.27596192     0.19640
C4396       C  0.93110706  0.02440910  0.27781360     0.24670
C4397       C  0.92971224  0.04292175  0.26621365    -0.23320
C4398       C  0.94688852  0.04889521  0.25410624     0.19570
F4399       F  0.94624395  0.06643620  0.24251704    -0.13280
F4400       F  0.98093673  0.04214237  0.24131503    -0.15640
F4401       F  0.91586628  0.01859208  0.29108199    -0.15650
F4402       F  0.94762018  0.99272670  0.28548147    -0.13280
C4403       C  0.93183158  0.97281275  0.22389482     0.24730
C4404       C  0.93128744  0.98414444  0.20517324    -0.23380
C4405       C  0.94898206  0.99543624  0.19928056     0.19640
C4406       C  0.96636298  0.99616706  0.21243488     0.24670
C4407       C  0.96605897  0.98600688  0.23174053    -0.23320
C4408       C  0.94863210  0.97434817  0.23726127     0.19570
F4409       F  0.94750278  0.96483741  0.25597403    -0.13280
F4410       F  0.91588866  0.96033054  0.22958042    -0.15640
F4411       F  0.98318380  0.00737213  0.20671839    -0.15650
F4412       F  0.94911125  0.00652815  0.18139723    -0.13280
C4413       C  0.02313506  0.93708347  0.27638311     0.24730
C4414       C  0.02895735  0.95404995  0.26416371    -0.23380
C4415       C  0.04810873  0.95358684  0.25385810     0.19640
C4416       C  0.06091951  0.93598096  0.25520044     0.24670
C4417       C  0.05490991  0.91880548  0.26732828    -0.23320
C4418       C  0.03621147  0.92010072  0.27860455     0.19570
F4419       F  0.03035538  0.90490094  0.29193772    -0.13280
F4420       F  0.00443622  0.93666218  0.28589204    -0.15640
F4421       F  0.07869484  0.93548713  0.24403730    -0.15650
F4422       F  0.05408348  0.96993611  0.24204601    -0.13280
C4423       C  0.98469510  0.93728830  0.23792156     0.24730
C4424       C  0.99744788  0.95393915  0.23234283    -0.23380
C4425       C  0.00859699  0.95290155  0.21364566     0.19640
C4426       C  0.00732889  0.93516220  0.20096569     0.24670
C4427       C  0.99446648  0.91844331  0.20663843    -0.23320
C4428       C  0.98257020  0.92020484  0.22491315     0.19570
F4429       F  0.96882533  0.90527889  0.23044875    -0.13280
F4430       F  0.97471712  0.93716963  0.25641711    -0.15640
F4431       F  0.01933445  0.93401014  0.18374290    -0.15650
F4432       F  0.02120970  0.96876110  0.20806540    -0.13280
C4433       C  0.02207857  0.97382033  0.31332194     0.24730
C4434       C  0.02846652  0.98547747  0.29614517    -0.23380
C4435       C  0.04788669  0.99525511  0.29660916     0.19640
C4436       C  0.06031984  0.99416509  0.31450358     0.24670
C4437       C  0.05357633  0.98290747  0.33197741    -0.23320
C4438       C  0.03470106  0.97198790  0.33069707     0.19570
F4439       F  0.02818937  0.95955738  0.34640002    -0.13280
F4440       F  0.00325594  0.96455746  0.31357470    -0.15640
F4441       F  0.07836844  0.00487483  0.31504438    -0.15650
F4442       F  0.05443253  0.00641589  0.28001630    -0.13280
C4443       C  0.00860946  0.03566850  0.29731717     0.24730
C4444       C  0.99700166  0.01726923  0.29616320    -0.23380
C4445       C  0.98426078  0.01187961  0.31290424     0.19640
C4446       C  0.98247071  0.02483414  0.33007657     0.24670
C4447       C  0.99482509  0.04277649  0.33196459    -0.23320
C4448       C  0.00775391  0.04822618  0.31518958     0.19570
F4449       F  0.02019208  0.06512021  0.31636776    -0.13280
F4450       F  0.02133416  0.04102982  0.28145733    -0.15640
F4451       F  0.96855366  0.01954471  0.34493280    -0.15650
F4452       F  0.97408971  0.99352692  0.31315550    -0.13280
C4453       C  0.06043039  0.24264028  0.94709336     0.24730
C4454       C  0.05452266  0.25510333  0.93012411    -0.23380
C4455       C  0.03629901  0.26704344  0.93184552     0.19640
C4456       C  0.02353034  0.26526943  0.94914463     0.24670
C4457       C  0.02913608  0.25254791  0.96583949    -0.23320
C4458       C  0.04786931  0.24152807  0.96490107     0.19570
F4459       F  0.05363128  0.22921529  0.98096624    -0.13280
F4460       F  0.07777075  0.23083989  0.94613521    -0.15640
F4461       F  0.00525138  0.27556315  0.94921448    -0.15650
F4462       F  0.03057754  0.28047791  0.91667311    -0.13280
C4463       C  0.98335215  0.21332159  0.93178948     0.24730
C4464       C  0.99450481  0.19456040  0.93048496    -0.23380
C4465       C  0.00676107  0.18852223  0.94753495     0.19640
C4466       C  0.00818817  0.20131953  0.96517784     0.24670
C4467       C  0.99785500  0.22048629  0.96574431    -0.23320
C4468       C  0.98570181  0.22642561  0.94876257     0.19570
F4469       F  0.97643862  0.24527473  0.94828904    -0.13280
F4470       F  0.97012116  0.21922029  0.91651998    -0.15640
F4471       F  0.02018347  0.19537997  0.98140297    -0.15650
F4472       F  0.01803971  0.17080294  0.94679740    -0.13280
C4473       C  0.96589210  0.20072944  0.00851679     0.24730
C4474       C  0.96632621  0.21967741  0.99772461    -0.23380
C4475       C  0.94931199  0.22515804  0.98541638     0.19640
C4476       C  0.93230561  0.21205016  0.98371276     0.24670
C4477       C  0.93107218  0.19362899  0.99547669    -0.23320
C4478       C  0.94830372  0.18785042  0.00757670     0.19570
F4479       F  0.94781951  0.17030777  0.01917206    -0.13280
F4480       F  0.98221951  0.19507131  0.02047373    -0.15640
F4481       F  0.91691989  0.21765994  0.97050758    -0.15650
F4482       F  0.94874572  0.24364528  0.97545355    -0.13280
C4483       C  0.94869183  0.26241493  0.02387662     0.24730
C4484       C  0.96617468  0.25102739  0.02976746    -0.23380
C4485       C  0.96611732  0.24066154  0.04896392     0.19640
C4486       C  0.94842862  0.24111544  0.06172019     0.24670
C4487       C  0.93080401  0.25243755  0.05560984    -0.23320
C4488       C  0.93168029  0.26388945  0.03696429     0.19570
F4489       F  0.91592635  0.27651919  0.03108781    -0.13280
F4490       F  0.94769339  0.27166808  0.00502109    -0.15640
F4491       F  0.94824953  0.22978355  0.07945041    -0.15650
F4492       F  0.98286914  0.22947382  0.05492012    -0.13280
C4493       C  0.02132445  0.30189554  0.98662440     0.24730
C4494       C  0.02840322  0.28450529  0.99750954    -0.23380
C4495       C  0.04830639  0.28493638  0.00622360     0.19640
C4496       C  0.06069058  0.30283103  0.00462753     0.24670
C4497       C  0.05353826  0.32046225  0.99374889    -0.23320
C4498       C  0.03388297  0.31927214  0.98412633     0.19570
F4499       F  0.02663016  0.33471869  0.97183970    -0.13280
F4500       F  0.00203016  0.30216549  0.97835653    -0.15640
F4501       F  0.07938438  0.30293382  0.01415932    -0.15650
F4502       F  0.05555386  0.26816619  0.01665096    -0.13280
C4503       C  0.98442876  0.29959939  0.02593795     0.24730
C4504       C  0.99783368  0.28307131  0.03023208    -0.23380
C4505       C  0.01032000  0.28395556  0.04808563     0.19640
C4506       C  0.00976441  0.30146082  0.06111695     0.24670
C4507       C  0.99635435  0.31807015  0.05661309    -0.23320
C4508       C  0.98308252  0.31642587  0.03934333     0.19570
F4509       F  0.96900594  0.33144942  0.03500546    -0.13280
F4510       F  0.97333968  0.30010429  0.00811684    -0.15640
F4511       F  0.02309029  0.30263891  0.07734192    -0.15650
F4512       F  0.02365637  0.26827905  0.05234842    -0.13280
loop_ 
_geom_bond_atom_site_label_1 
_geom_bond_atom_site_label_2 
_geom_bond_distance 
_geom_bond_site_symmetry_2 
_ccdc_geom_bond_type 
C1            C2   1.418   1_456  A
C1            C6   1.418       .  A
C1         C4494   1.494       .  S
C2            C3   1.420       .  A
C2         C4504   1.491       .  S
C3            C4   1.418   1_554  A
C3         C4484   1.491       .  S
C4            C5   1.419       .  A
C4         C4474   1.495       .  S
C5            C6   1.419   1_655  A
C5         C4467   1.490       .  S
C6         C4457   1.491       .  S
C7            C8   1.419   1_465  A
C7           C12   1.418       .  A
C7         C4434   1.489       .  S
C8            C9   1.420       .  A
C8         C4444   1.495       .  S
C9           C10   1.420   1_545  A
C9         C4394   1.494       .  S
C10          C11   1.419       .  A
C10        C4407   1.491       .  S
C11          C12   1.417   1_655  A
C11        C4424   1.492       .  S
C12        C4414   1.491       .  S
C13          C14   1.406       .  A
C13          C18   1.404       .  A
C13         C128   1.472       .  S
C14          C15   1.406       .  A
C14         C104   1.470       .  S
C15          C16   1.403       .  A
C15          C32   1.469       .  S
C16          C17   1.402       .  A
C16         C152   1.464       .  S
C17          C18   1.403       .  A
C17          C80   1.470       .  S
C18          C56   1.464       .  S
N19          N20   1.322       .  A
N19          C23   1.359       .  A
N19         Cu27   2.130       .  S
N20          C21   1.333       .  A
N20         Cu26   2.039       .  S
C21          C22   1.379       .  A
C21          H24   1.079       .  S
C22          C23   1.403       .  A
C22        C4384   1.498       .  S
C23          H25   1.081       .  S
Cu26         N29   2.038       .  S
Cu27         N37   2.130       .  S
Cu28         N30   2.048       .  S
Cu28         N36   2.051       .  S
N29          N30   1.315       .  A
N29          C33   1.340       .  A
N30          C31   1.342       .  A
C31          C32   1.381       .  A
C31          H34   1.081       .  S
C32          C33   1.378       .  A
C33          H35   1.082       .  S
N36          N37   1.323       .  A
N36          C40   1.334       .  A
N37          C38   1.359       .  A
C38          C39   1.402       .  A
C38          H41   1.081       .  S
C39          C40   1.380       .  A
C39        C4374   1.499       .  S
C40          H42   1.080       .  S
N43          N44   1.324       .  A
N43          C47   1.355       .  A
N43         Cu51   2.115       .  S
N44          C45   1.334       .  A
N44         Cu50   2.042       .  S
C45          C46   1.373       .  A
C45          H48   1.082       .  S
C46          C47   1.394       .  A
C46        C4364   1.478       .  S
C47          H49   1.082       .  S
Cu50         N53   2.041       .  S
Cu51         N61   2.114       .  S
Cu52         N54   2.037       .  S
Cu52         N60   2.038       .  S
N53          N54   1.316       .  A
N53          C57   1.342       .  A
N54          C55   1.339       .  A
C55          C56   1.377       .  A
C55          H58   1.081       .  S
C56          C57   1.379       .  A
C57          H59   1.081       .  S
N60          N61   1.322       .  A
N60          C64   1.334       .  A
N61          C62   1.356       .  A
C62          C63   1.397       .  A
C62          H65   1.082       .  S
C63          C64   1.376       .  A
C63        C4354   1.485       .  S
C64          H66   1.081       .  S
N67          N68   1.323       .  A
N67          C71   1.355       .  A
N67         Cu75   2.121       .  S
N68          C69   1.338       .  A
N68         Cu74   2.063       .  S
C69          C70   1.384       .  A
C69          H72   1.079       .  S
C70          C71   1.399       .  A
C70        C4344   1.501       .  S
C71          H73   1.081       .  S
Cu74         N77   2.064       .  S
Cu75         N85   2.118       .  S
Cu76         N78   2.040       .  S
Cu76         N84   2.042       .  S
N77          N78   1.318       .  A
N77          C81   1.345       .  A
N78          C79   1.340       .  A
C79          C80   1.376       .  A
C79          H82   1.082       .  S
C80          C81   1.382       .  A
C81          H83   1.081       .  S
N84          N85   1.319       .  A
N84          C88   1.335       .  A
N85          C86   1.356       .  A
C86          C87   1.403       .  A
C86          H89   1.081       .  S
C87          C88   1.383       .  A
C87        C4334   1.501       .  S
C88          H90   1.079       .  S
N91          N92   1.321       .  A
N91          C95   1.358       .  A
N91         Cu99   2.121       .  S
N92          C93   1.329       .  A
N92         Cu98   2.025       .  S
C93          C94   1.374       .  A
C93          H96   1.080       .  S
C94          C95   1.401       .  A
C94        C4324   1.489       .  S
C95          H97   1.081       .  S
Cu98        N101   2.025       .  S
Cu99        N109   2.123       .  S
Cu100       N102   2.036       .  S
Cu100       N108   2.038       .  S
N101        N102   1.312       .  A
N101        C105   1.338       .  A
N102        C103   1.340       .  A
C103        C104   1.382       .  A
C103        H106   1.080       .  S
C104        C105   1.379       .  A
C105        H107   1.081       .  S
N108        N109   1.324       .  A
N108        C112   1.331       .  A
N109        C110   1.358       .  A
C110        C111   1.397       .  A
C110        H113   1.082       .  S
C111        C112   1.373       .  A
C111       C4314   1.484       .  S
C112        H114   1.081       .  S
N115        N116   1.324       .  A
N115        C119   1.356       .  A
N115       Cu123   2.120       .  S
N116        C117   1.337       .  A
N116       Cu122   2.058       .  S
C117        C118   1.380       .  A
C117        H120   1.081       .  S
C118        C119   1.397       .  A
C118       C4304   1.493       .  S
C119        H121   1.081       .  S
Cu122       N125   2.056       .  S
Cu123       N133   2.119       .  S
Cu124       N126   2.046       .  S
Cu124       N132   2.048       .  S
N125        N126   1.317       .  A
N125        C129   1.343       .  A
N126        C127   1.342       .  A
C127        C128   1.379       .  A
C127        H130   1.081       .  S
C128        C129   1.381       .  A
C129        H131   1.081       .  S
N132        N133   1.321       .  A
N132        C136   1.335       .  A
N133        C134   1.356       .  A
C134        C135   1.401       .  A
C134        H137   1.081       .  S
C135        C136   1.381       .  A
C135       C4294   1.498       .  S
C136        H138   1.080       .  S
N139        N140   1.322       .  A
N139        C143   1.358       .  A
N139       Cu147   2.120       .  S
N140        C141   1.331       .  A
N140       Cu146   2.035       .  S
C141        C142   1.375       .  A
C141        H144   1.081       .  S
C142        C143   1.399       .  A
C142       C4284   1.488       .  S
C143        H145   1.081       .  S
Cu146       N149   2.034       .  S
Cu147       N157   2.121       .  S
Cu148       N150   2.041       .  S
Cu148       N156   2.042       .  S
N149        N150   1.315       .  A
N149        C153   1.340       .  A
N150        C151   1.341       .  A
C151        C152   1.379       .  A
C151        H154   1.081       .  S
C152        C153   1.377       .  A
C153        H155   1.082       .  S
N156        N157   1.324       .  A
N156        C160   1.333       .  A
N157        C158   1.357       .  A
C158        C159   1.397       .  A
C158        H161   1.082       .  S
C159        C160   1.375       .  A
C159       C4274   1.486       .  S
C160        H162   1.081       .  S
C163        C164   1.419       .  A
C163        C168   1.421       .  A
C163       C4264   1.490       .  S
C164        C165   1.418       .  A
C164       C4254   1.497       .  S
C165        C166   1.419   1_455  A
C165       C4224   1.489       .  S
C166        C167   1.418       .  A
C166       C4217   1.492       .  S
C167        C168   1.422   1_655  A
C167       C4237   1.497       .  S
C168       C4247   1.497       .  S
C169        C170   1.402   1_655  A
C169        C174   1.404   1_565  A
C169        C284   1.470       .  S
C170        C171   1.403       .  A
C170        C308   1.465       .  S
C171        C172   1.404       .  A
C171        C236   1.467       .  S
C172        C173   1.403   1_565  A
C172        C188   1.468       .  S
C173        C174   1.404   1_455  A
C173        C212   1.469       .  S
C174        C260   1.464       .  S
N175        N176   1.323       .  A
N175        C179   1.357       .  A
N175       Cu183   2.121       .  S
N176        C177   1.332       .  A
N176       Cu182   2.036       .  S
C177        C178   1.375       .  A
C177        H180   1.081       .  S
C178        C179   1.399       .  A
C178       C4437   1.488       .  S
C179        H181   1.081       .  S
Cu182       N185   2.035       .  S
Cu183       N193   2.122       .  S
Cu184       N186   2.039   1_545  S
Cu184       N192   2.040   1_545  S
N185        N186   1.314       .  A
N185        C189   1.340       .  A
N186        C187   1.341       .  A
C187        C188   1.380       .  A
C187        H190   1.081   1_565  S
C188        C189   1.379       .  A
C189        H191   1.081       .  S
N192        N193   1.323       .  A
N192        C196   1.332   1_565  A
N193        C194   1.357       .  A
C194        C195   1.398   1_565  A
C194        H197   1.081       .  S
C195        C196   1.375       .  A
C195       C4204   1.488       .  S
C196        H198   1.081       .  S
N199        N200   1.323       .  A
N199        C203   1.357   1_655  A
N199       Cu207   2.119   1_655  S
N200        C201   1.334       .  A
N200       Cu206   2.049       .  S
C201        C202   1.379       .  A
C201        H204   1.080       .  S
C202        C203   1.399   1_655  A
C202       C4447   1.494       .  S
C203        H205   1.081       .  S
Cu206       N209   2.047       .  S
Cu207       N217   2.119       .  S
Cu208       N210   2.041       .  S
Cu208       N216   2.042       .  S
N209        N210   1.316   1_655  A
N209        C213   1.342       .  A
N210        C211   1.341       .  A
C211        C212   1.379       .  A
C211        H214   1.081       .  S
C212        C213   1.380   1_455  A
C213        H215   1.081       .  S
N216        N217   1.322       .  A
N216        C220   1.333       .  A
N217        C218   1.357       .  A
C218        C219   1.401       .  A
C218        H221   1.081       .  S
C219        C220   1.379       .  A
C219       C4227   1.495       .  S
C220        H222   1.080       .  S
N223        N224   1.322       .  A
N223        C227   1.357       .  A
N223       Cu231   2.123       .  S
N224        C225   1.332       .  A
N224       Cu230   2.037       .  S
C225        C226   1.378       .  A
C225        H228   1.079       .  S
C226        C227   1.401       .  A
C226       C4184   1.495       .  S
C227        H229   1.081       .  S
Cu230       N233   2.036       .  S
Cu231       N241   2.123       .  S
Cu232       N234   2.044       .  S
Cu232       N240   2.046       .  S
N233        N234   1.315       .  A
N233        C237   1.340       .  A
N234        C235   1.342       .  A
C235        C236   1.380       .  A
C235        H238   1.081       .  S
C236        C237   1.378       .  A
C237        H239   1.082       .  S
N240        N241   1.323       .  A
N240        C244   1.333       .  A
N241        C242   1.357       .  A
C242        C243   1.400       .  A
C242        H245   1.081       .  S
C243        C244   1.378       .  A
C243       C4194   1.493       .  S
C244        H246   1.080       .  S
N247        N248   1.324       .  A
N247        C251   1.359       .  A
N247       Cu255   2.127       .  S
N248        C249   1.333       .  A
N248       Cu254   2.038       .  S
C249        C250   1.373       .  A
C249        H252   1.082       .  S
C250        C251   1.397       .  A
C250       C4174   1.484       .  S
C251        H253   1.082       .  S
Cu254       N257   2.036       .  S
Cu255       N265   2.128       .  S
Cu256       N258   2.040       .  S
Cu256       N264   2.041       .  S
N257        N258   1.315       .  A
N257        C261   1.341       .  A
N258        C259   1.340       .  A
C259        C260   1.378       .  A
C259        H262   1.082       .  S
C260        C261   1.378       .  A
C261        H263   1.081       .  S
N264        N265   1.324       .  A
N264        C268   1.335       .  A
N265        C266   1.357       .  A
C266        C267   1.398       .  A
C266        H269   1.082       .  S
C267        C268   1.375       .  A
C267       C4214   1.487       .  S
C268        H270   1.081       .  S
N271        N272   1.322       .  A
N271        C275   1.355       .  A
N271       Cu279   2.120       .  S
N272        C273   1.338       .  A
N272       Cu278   2.062       .  S
C273        C274   1.385       .  A
C273        H276   1.078       .  S
C274        C275   1.401       .  A
C274       C4164   1.504       .  S
C275        H277   1.081       .  S
Cu278       N281   2.063       .  S
Cu279       N289   2.118   1_565  S
Cu280       N282   2.042   1_545  S
Cu280       N288   2.044       .  S
N281        N282   1.318       .  A
N281        C285   1.344       .  A
N282        C283   1.341   1_565  A
C283        C284   1.377   1_545  A
C283        H286   1.081       .  S
C284        C285   1.382       .  A
C285        H287   1.081       .  S
N288        N289   1.320       .  A
N288        C292   1.335       .  A
N289        C290   1.357       .  A
C290        C291   1.401       .  A
C290        H293   1.081   1_545  S
C291        C292   1.382       .  A
C291       C4154   1.498       .  S
C292        H294   1.080       .  S
N295        N296   1.323       .  A
N295        C299   1.356   1_655  A
N295       Cu303   2.115   1_655  S
N296        C297   1.333       .  A
N296       Cu302   2.041       .  S
C297        C298   1.376       .  A
C297        H300   1.081       .  S
C298        C299   1.397   1_655  A
C298       C4144   1.487       .  S
C299        H301   1.082       .  S
Cu302       N305   2.039       .  S
Cu303       N313   2.114       .  S
Cu304       N306   2.040       .  S
Cu304       N312   2.041       .  S
N305        N306   1.315   1_655  A
N305        C309   1.341       .  A
N306        C307   1.341       .  A
C307        C308   1.378       .  A
C307        H310   1.081       .  S
C308        C309   1.378   1_455  A
C309        H311   1.082       .  S
N312        N313   1.323       .  A
N312        C316   1.333       .  A
N313        C314   1.356       .  A
C314        C315   1.397       .  A
C314        H317   1.081       .  S
C315        C316   1.377       .  A
C315       C4134   1.487       .  S
C316        H318   1.081       .  S
C319        C320   1.419   1_565  A
C319        C324   1.419       .  A
C319       C4197   1.494       .  S
C320        C321   1.419       .  A
C320       C4207   1.492       .  S
C321        C322   1.418       .  A
C321       C4094   1.492       .  S
C322        C323   1.418       .  A
C322       C4104   1.491       .  S
C323        C324   1.419   1_545  A
C323       C4124   1.491       .  S
C324       C4117   1.492       .  S
C325        C326   1.402   1_456  A
C325        C330   1.402       .  A
C325        C440   1.468       .  S
C326        C327   1.402       .  A
C326        C464   1.465       .  S
C327        C328   1.402   1_655  A
C327        C392   1.464       .  S
C328        C329   1.401       .  A
C328        C368   1.464       .  S
C329        C330   1.402   1_554  A
C329        C344   1.468       .  S
C330        C416   1.462       .  S
N331        N332   1.323       .  A
N331        C335   1.357       .  A
N331       Cu339   2.123       .  S
N332        C333   1.335       .  A
N332       Cu338   2.049       .  S
C333        C334   1.379       .  A
C333        H336   1.081       .  S
C334        C335   1.399       .  A
C334       C4087   1.494       .  S
C335        H337   1.081       .  S
Cu338       N341   2.047       .  S
Cu339       N349   2.122   1_554  S
Cu340       N342   2.043       .  S
Cu340       N348   2.045       .  S
N341        N342   1.317   1_554  A
N341        C345   1.342       .  A
N342        C343   1.341       .  A
C343        C344   1.378   1_556  A
C343        H346   1.081       .  S
C344        C345   1.379       .  A
C345        H347   1.081       .  S
N348        N349   1.321       .  A
N348        C352   1.334       .  A
N349        C350   1.356       .  A
C350        C351   1.403       .  A
C350        H353   1.081   1_556  S
C351        C352   1.382       .  A
C351       C4497   1.502       .  S
C352        H354   1.078       .  S
N355        N356   1.322       .  A
N355        C359   1.356       .  A
N355       Cu363   2.116       .  S
N356        C357   1.331       .  A
N356       Cu362   2.035       .  S
C357        C358   1.376       .  A
C357        H360   1.080       .  S
C358        C359   1.399       .  A
C358       C4077   1.489       .  S
C359        H361   1.081       .  S
Cu362       N365   2.034       .  S
Cu363       N373   2.117       .  S
Cu364       N366   2.038   1_655  S
Cu364       N372   2.040       .  S
N365        N366   1.315       .  A
N365        C369   1.340       .  A
N366        C367   1.340       .  A
C367        C368   1.379       .  A
C367        H370   1.081   1_455  S
C368        C369   1.378       .  A
C369        H371   1.081       .  S
N372        N373   1.323   1_655  A
N372        C376   1.332       .  A
N373        C374   1.357       .  A
C374        C375   1.397   1_455  A
C374        H377   1.082       .  S
C375        C376   1.375       .  A
C375       C4507   1.485       .  S
C376        H378   1.081       .  S
N379        N380   1.323       .  A
N379        C383   1.357       .  A
N379       Cu387   2.122       .  S
N380        C381   1.334       .  A
N380       Cu386   2.045       .  S
C381        C382   1.377       .  A
C381        H384   1.080       .  S
C382        C383   1.399       .  A
C382       C4064   1.491       .  S
C383        H385   1.081       .  S
Cu386       N389   2.043       .  S
Cu387       N397   2.121       .  S
Cu388       N390   2.036       .  S
Cu388       N396   2.037       .  S
N389        N390   1.315       .  A
N389        C393   1.341       .  A
N390        C391   1.340       .  A
C391        C392   1.377       .  A
C391        H394   1.081       .  S
C392        C393   1.379       .  A
C393        H395   1.081       .  S
N396        N397   1.320       .  A
N396        C400   1.332       .  A
N397        C398   1.357       .  A
C398        C399   1.405       .  A
C398        H401   1.080       .  S
C399        C400   1.382       .  A
C399       C4054   1.503       .  S
C400        H402   1.076       .  S
N403        N404   1.322       .  A
N403        C407   1.359       .  A
N403       Cu411   2.130       .  S
N404        C405   1.329       .  A
N404       Cu410   2.030       .  S
C405        C406   1.374       .  A
C405        H408   1.080       .  S
C406        C407   1.402       .  A
C406       C4044   1.492       .  S
C407        H409   1.081       .  S
Cu410       N413   2.029       .  S
Cu411       N421   2.130       .  S
Cu412       N414   2.026       .  S
Cu412       N420   2.027       .  S
N413        N414   1.312       .  A
N413        C417   1.339       .  A
N414        C415   1.339       .  A
C415        C416   1.378       .  A
C415        H418   1.081       .  S
C416        C417   1.379       .  A
C417        H419   1.081       .  S
N420        N421   1.322       .  A
N420        C424   1.329       .  A
N421        C422   1.359       .  A
C422        C423   1.403       .  A
C422        H425   1.081       .  S
C423        C424   1.374       .  A
C423       C4034   1.492       .  S
C424        H426   1.080       .  S
N427        N428   1.322       .  A
N427        C431   1.357       .  A
N427       Cu435   2.119       .  S
N428        C429   1.333       .  A
N428       Cu434   2.044       .  S
C429        C430   1.379       .  A
C429        H432   1.080       .  S
C430        C431   1.400       .  A
C430       C4017   1.493       .  S
C431        H433   1.081       .  S
Cu434       N437   2.043       .  S
Cu435       N445   2.121   1_455  S
Cu436       N438   2.047       .  S
Cu436       N444   2.049       .  S
N437        N438   1.316   1_455  A
N437        C441   1.341       .  A
N438        C439   1.342       .  A
C439        C440   1.379   1_655  A
C439        H442   1.082       .  S
C440        C441   1.378       .  A
C441        H443   1.081       .  S
N444        N445   1.324       .  A
N444        C448   1.336       .  A
N445        C446   1.356       .  A
C446        C447   1.397       .  A
C446        H449   1.081   1_655  S
C447        C448   1.377       .  A
C447       C4024   1.489       .  S
C448        H450   1.081       .  S
N451        N452   1.322       .  A
N451        C455   1.357       .  A
N451       Cu459   2.124       .  S
N452        C453   1.332       .  A
N452       Cu458   2.035       .  S
C453        C454   1.376       .  A
C453        H456   1.080       .  S
C454        C455   1.400       .  A
C454       C3994   1.490       .  S
C455        H457   1.082       .  S
Cu458       N461   2.034       .  S
Cu459       N469   2.124       .  S
Cu460       N462   2.041   1_556  S
Cu460       N468   2.042   1_556  S
N461        N462   1.315       .  A
N461        C465   1.339       .  A
N462        C463   1.341       .  A
C463        C464   1.379       .  A
C463        H466   1.081   1_554  S
C464        C465   1.377       .  A
C465        H467   1.082       .  S
N468        N469   1.324       .  A
N468        C472   1.333   1_554  A
N469        C470   1.358       .  A
C470        C471   1.397       .  A
C470        H473   1.082       .  S
C471        C472   1.374   1_554  A
C471       C4004   1.484   1_554  S
C472        H474   1.082       .  S
C475        C476   1.418       .  A
C475        C480   1.419       .  A
C475       C3984   1.494       .  S
C476        C477   1.417   1_455  A
C476       C4074   1.488       .  S
C477        C478   1.417       .  A
C477       C4067   1.492       .  S
C478        C479   1.419   1_655  A
C478       C3967   1.491       .  S
C479        C480   1.421       .  A
C479       C3954   1.494       .  S
C480       C3974   1.492       .  S
C481        C482   1.419       .  A
C481        C486   1.419       .  A
C481       C3947   1.489       .  S
C482        C483   1.420   1_554  A
C482       C4084   1.497       .  S
C483        C484   1.420       .  A
C483       C4047   1.490       .  S
C484        C485   1.421   1_556  A
C484       C3917   1.497       .  S
C485        C486   1.419       .  A
C485       C3924   1.490       .  S
C486       C3937   1.498       .  S
C487        C488   1.402   1_545  A
C487        C492   1.405   1_556  A
C487        C554   1.472       .  S
C488        C489   1.405   1_556  A
C488        C602   1.467       .  S
C489        C490   1.404       .  A
C489        C626   1.466       .  S
C490        C491   1.404       .  A
C490        C578   1.470       .  S
C491        C492   1.407   1_565  A
C491        C530   1.472       .  S
C492        C506   1.466       .  S
N493        N494   1.322       .  A
N493        C497   1.358       .  A
N493       Cu501   2.126   1_556  S
N494        C495   1.329       .  A
N494       Cu500   2.026       .  S
C495        C496   1.374       .  A
C495        H498   1.080       .  S
C496        C497   1.402       .  A
C496       C3894   1.490       .  S
C497        H499   1.081       .  S
Cu500       N503   2.025   1_556  S
Cu501       N511   2.127       .  S
Cu502       N504   2.029       .  S
Cu502       N510   2.030       .  S
N503        N504   1.312       .  A
N503        C507   1.338       .  A
N504        C505   1.339       .  A
C505        C506   1.380       .  A
C505        H508   1.081       .  S
C506        C507   1.379       .  A
C507        H509   1.081   1_554  S
N510        N511   1.323       .  A
N510        C514   1.330       .  A
N511        C512   1.358       .  A
C512        C513   1.399       .  A
C512        H515   1.082       .  S
C513        C514   1.372       .  A
C513       C3907   1.485       .  S
C514        H516   1.081       .  S
N517        N518   1.321       .  A
N517        C521   1.354       .  A
N517       Cu525   2.111       .  S
N518        C519   1.338       .  A
N518       Cu524   2.047       .  S
C519        C520   1.380       .  A
C519        H522   1.081       .  S
C520        C521   1.397       .  A
C520       C3874   1.490       .  S
C521        H523   1.081       .  S
Cu524       N527   2.046       .  S
Cu525       N535   2.112   1_565  S
Cu526       N528   2.064       .  S
Cu526       N534   2.063       .  S
N527        N528   1.319   1_565  A
N527        C531   1.341       .  A
N528        C529   1.344       .  A
C529        C530   1.381   1_545  A
C529        H532   1.081       .  S
C530        C531   1.377       .  A
C531        H533   1.081       .  S
N534        N535   1.321       .  A
N534        C538   1.338       .  A
N535        C536   1.354   1_545  A
C536        C537   1.399   1_565  A
C536        H539   1.081       .  S
C537        C538   1.387       .  A
C537       C3884   1.503       .  S
C538        H540   1.077       .  S
N541        N542   1.322       .  A
N541        C545   1.358       .  A
N541       Cu549   2.122       .  S
N542        C543   1.334       .  A
N542       Cu548   2.046       .  S
C543        C544   1.379       .  A
C543        H546   1.081       .  S
C544        C545   1.400       .  A
C544       C3854   1.494       .  S
C545        H547   1.081       .  S
Cu548       N551   2.045       .  S
Cu549       N559   2.123       .  S
Cu550       N552   2.052       .  S
Cu550       N558   2.054       .  S
N551        N552   1.316       .  A
N551        C555   1.342       .  A
N552        C553   1.343       .  A
C553        C554   1.381       .  A
C553        H556   1.082       .  S
C554        C555   1.379       .  A
C555        H557   1.081       .  S
N558        N559   1.323       .  A
N558        C562   1.335       .  A
N559        C560   1.357       .  A
C560        C561   1.400       .  A
C560        H563   1.081       .  S
C561        C562   1.380       .  A
C561       C3864   1.496       .  S
C562        H564   1.081       .  S
N565        N566   1.321       .  A
N565        C569   1.353       .  A
N565       Cu573   2.112       .  S
N566        C567   1.338       .  A
N566       Cu572   2.058       .  S
C567        C568   1.386       .  A
C567        H570   1.077       .  S
C568        C569   1.400       .  A
C568       C3834   1.502       .  S
C569        H571   1.081       .  S
Cu572       N575   2.060       .  S
Cu573       N583   2.111       .  S
Cu574       N576   2.048       .  S
Cu574       N582   2.049       .  S
N575        N576   1.319       .  A
N575        C579   1.343       .  A
N576        C577   1.341       .  A
C577        C578   1.377       .  A
C577        H580   1.081       .  S
C578        C579   1.380       .  A
C579        H581   1.081       .  S
N582        N583   1.322       .  A
N582        C586   1.336       .  A
N583        C584   1.356       .  A
C584        C585   1.396       .  A
C584        H587   1.082       .  S
C585        C586   1.379       .  A
C585       C3844   1.487       .  S
C586        H588   1.081       .  S
N589        N590   1.323       .  A
N589        C593   1.358       .  A
N589       Cu597   2.126       .  S
N590        C591   1.332       .  A
N590       Cu596   2.041       .  S
C591        C592   1.376       .  A
C591        H594   1.081       .  S
C592        C593   1.400       .  A
C592       C3814   1.491       .  S
C593        H595   1.081       .  S
Cu596       N599   2.040       .  S
Cu597       N607   2.126       .  S
Cu598       N600   2.034   1_545  S
Cu598       N606   2.035       .  S
N599        N600   1.314       .  A
N599        C603   1.341       .  A
N600        C601   1.341       .  A
C601        C602   1.379       .  A
C601        H604   1.081   1_565  S
C602        C603   1.380       .  A
C603        H605   1.081       .  S
N606        N607   1.322   1_545  A
N606        C610   1.331       .  A
N607        C608   1.359       .  A
C608        C609   1.400   1_565  A
C608        H611   1.081       .  S
C609        C610   1.375       .  A
C609       C3824   1.491       .  S
C610        H612   1.081       .  S
N613        N614   1.325       .  A
N613        C617   1.356       .  A
N613       Cu621   2.121   1_556  S
N614        C615   1.336       .  A
N614       Cu620   2.049       .  S
C615        C616   1.375       .  A
C615        H618   1.082       .  S
C616        C617   1.395       .  A
C616       C3794   1.483       .  S
C617        H619   1.082   1_556  S
Cu620       N623   2.048       .  S
Cu621       N631   2.119       .  S
Cu622       N624   2.037       .  S
Cu622       N630   2.039       .  S
N623        N624   1.316   1_556  A
N623        C627   1.342       .  A
N624        C625   1.340       .  A
C625        C626   1.377       .  A
C625        H628   1.081       .  S
C626        C627   1.380   1_554  A
C627        H629   1.081       .  S
N630        N631   1.321       .  A
N630        C634   1.333       .  A
N631        C632   1.357       .  A
C632        C633   1.400       .  A
C632        H635   1.081       .  S
C633        C634   1.378       .  A
C633       C3807   1.492       .  S
C634        H636   1.081       .  S
C637        C638   1.423   1_565  A
C637        C642   1.421       .  A
C637       C3847   1.501       .  S
C638        C639   1.423       .  A
C638       C3887   1.500       .  S
C639        C640   1.426       .  A
C639       C3754   1.498       .  S
C640        C641   1.421       .  A
C640       C3764   1.500       .  S
C641        C642   1.422   1_545  A
C641       C3774   1.501       .  S
C642       C3784   1.491       .  S
C643        C644   1.418   1_556  A
C643        C648   1.419       .  A
C643       C3867   1.497       .  S
C644        C645   1.418       .  A
C644       C3904   1.488       .  S
C645        C646   1.418       .  A
C645       C3724   1.491       .  S
C646        C647   1.420       .  A
C646       C3714   1.495       .  S
C647        C648   1.421   1_554  A
C647       C3744   1.492       .  S
C648       C3734   1.492       .  S
C649        C650   1.419       .  A
C649        C654   1.419       .  A
C649       C4307   1.501       .  S
C650        C651   1.420       .  A
C650       C4327   1.489       .  S
C651        C652   1.423       .  A
C651       C3704   1.497       .  S
C652        C653   1.421       .  A
C652       C3697   1.500       .  S
C653        C654   1.423       .  A
C653       C3684   1.495       .  S
C654       C3674   1.491       .  S
C655        C656   1.405       .  A
C655        C660   1.403       .  A
C655        C722   1.466       .  S
C656        C657   1.402       .  A
C656        C746   1.465       .  S
C657        C658   1.403       .  A
C657        C794   1.471       .  S
C658        C659   1.403       .  A
C658        C770   1.460       .  S
C659        C660   1.401       .  A
C659        C698   1.468       .  S
C660        C674   1.467       .  S
N661        N662   1.323       .  A
N661        C665   1.357       .  A
N661       Cu669   2.118       .  S
N662        C663   1.333       .  A
N662       Cu668   2.044       .  S
C663        C664   1.377       .  A
C663        H666   1.081       .  S
C664        C665   1.398       .  A
C664       C3664   1.489       .  S
C665        H667   1.081       .  S
Cu668       N671   2.043       .  S
Cu669       N679   2.117       .  S
Cu670       N672   2.040       .  S
Cu670       N678   2.041       .  S
N671        N672   1.315       .  A
N671        C675   1.341       .  A
N672        C673   1.341       .  A
C673        C674   1.379       .  A
C673        H676   1.081       .  S
C674        C675   1.379       .  A
C675        H677   1.081       .  S
N678        N679   1.321       .  A
N678        C682   1.332       .  A
N679        C680   1.356       .  A
C680        C681   1.401       .  A
C680        H683   1.081       .  S
C681        C682   1.379       .  A
C681       C3944   1.495       .  S
C682        H684   1.079       .  S
N685        N686   1.323       .  A
N685        C689   1.356       .  A
N685       Cu693   2.121       .  S
N686        C687   1.336       .  A
N686       Cu692   2.047       .  S
C687        C688   1.377       .  A
C687        H690   1.081       .  S
C688        C689   1.397       .  A
C688       C3687   1.488       .  S
C689        H691   1.081       .  S
Cu692       N695   2.046       .  S
Cu693       N703   2.121       .  S
Cu694       N696   2.049       .  S
Cu694       N702   2.050       .  S
N695        N696   1.317       .  A
N695        C699   1.342       .  A
N696        C697   1.342       .  A
C697        C698   1.379       .  A
C697        H700   1.081       .  S
C698        C699   1.378       .  A
C699        H701   1.082       .  S
N702        N703   1.323       .  A
N702        C706   1.336       .  A
N703        C704   1.356       .  A
C704        C705   1.397       .  A
C704        H707   1.081       .  S
C705        C706   1.378       .  A
C705       C3934   1.490       .  S
C706        H708   1.081       .  S
N709        N710   1.322       .  A
N709        C713   1.357       .  A
N709       Cu717   2.123       .  S
N710        C711   1.332       .  A
N710       Cu716   2.036       .  S
C711        C712   1.377       .  A
C711        H714   1.080       .  S
C712        C713   1.400       .  A
C712       C3657   1.492       .  S
C713        H715   1.081       .  S
Cu716       N719   2.035       .  S
Cu717       N727   2.123       .  S
Cu718       N720   2.041       .  S
Cu718       N726   2.042       .  S
N719        N720   1.314       .  A
N719        C723   1.340       .  A
N720        C721   1.341       .  A
C721        C722   1.380       .  A
C721        H724   1.081       .  S
C722        C723   1.378       .  A
C723        H725   1.081       .  S
N726        N727   1.323       .  A
N726        C730   1.333       .  A
N727        C728   1.357       .  A
C728        C729   1.398       .  A
C728        H731   1.082       .  S
C729        C730   1.376       .  A
C729       C3987   1.488       .  S
C730        H732   1.081       .  S
N733        N734   1.324       .  A
N733        C737   1.357       .  A
N733       Cu741   2.120       .  S
N734        C735   1.334       .  A
N734       Cu740   2.045       .  S
C735        C736   1.374       .  A
C735        H738   1.081       .  S
C736        C737   1.395       .  A
C736       C3644   1.483       .  S
C737        H739   1.082       .  S
Cu740       N743   2.044       .  S
Cu741       N751   2.118       .  S
Cu742       N744   2.036       .  S
Cu742       N750   2.038       .  S
N743        N744   1.315       .  A
N743        C747   1.342       .  A
N744        C745   1.340       .  A
C745        C746   1.378       .  A
C745        H748   1.081       .  S
C746        C747   1.379       .  A
C747        H749   1.081       .  S
N750        N751   1.321       .  A
N750        C754   1.332       .  A
N751        C752   1.357       .  A
C752        C753   1.400       .  A
C752        H755   1.081       .  S
C753        C754   1.378       .  A
C753       C3977   1.493       .  S
C754        H756   1.080       .  S
N757        N758   1.325       .  A
N757        C761   1.358       .  A
N757       Cu765   2.136       .  S
N758        C759   1.334       .  A
N758       Cu764   2.041       .  S
C759        C760   1.374       .  A
C759        H762   1.081       .  S
C760        C761   1.399       .  A
C760       C3634   1.489       .  S
C761        H763   1.082       .  S
Cu764       N767   2.039       .  S
Cu765       N775   2.133       .  S
Cu766       N768   2.020       .  S
Cu766       N774   2.020       .  S
N767        N768   1.313       .  A
N767        C771   1.340       .  A
N768        C769   1.338       .  A
C769        C770   1.375       .  A
C769        H772   1.081       .  S
C770        C771   1.380       .  A
C771        H773   1.081       .  S
N774        N775   1.320       .  A
N774        C778   1.328       .  A
N775        C776   1.360       .  A
C776        C777   1.406       .  A
C776        H779   1.081       .  S
C777        C778   1.376       .  A
C777       C3677   1.498       .  S
C778        H780   1.079       .  S
N781        N782   1.319       .  A
N781        C785   1.357       .  A
N781       Cu789   2.118       .  S
N782        C783   1.335       .  A
N782       Cu788   2.043       .  S
C783        C784   1.382       .  A
C783        H786   1.079       .  S
C784        C785   1.403       .  A
C784       C3614   1.500       .  S
C785        H787   1.081       .  S
Cu788       N791   2.042       .  S
Cu789       N799   2.120       .  S
Cu790       N792   2.066       .  S
Cu790       N798   2.065       .  S
N791        N792   1.319       .  A
N791        C795   1.341       .  A
N792        C793   1.344       .  A
C793        C794   1.382       .  A
C793        H796   1.081       .  S
C794        C795   1.377       .  A
C795        H797   1.081       .  S
N798        N799   1.323       .  A
N798        C802   1.338       .  A
N799        C800   1.355       .  A
C800        C801   1.400       .  A
C800        H803   1.081       .  S
C801        C802   1.385       .  A
C801       C3624   1.503       .  S
C802        H804   1.078       .  S
C805        C806   1.427       .  A
C805        C810   1.423       .  A
C805       C4367   1.494       .  S
C806        C807   1.421       .  A
C806       C4347   1.502       .  S
C807        C808   1.421       .  A
C807       C3604   1.501       .  S
C808        C809   1.421       .  A
C808       C3597   1.490       .  S
C809        C810   1.422       .  A
C809       C3647   1.498       .  S
C810       C3627   1.503       .  S
C811        C812   1.407       .  A
C811        C816   1.404       .  A
C811        C830   1.465       .  S
C812        C813   1.402       .  A
C812        C878   1.467       .  S
C813        C814   1.404       .  A
C813        C854   1.473       .  S
C814        C815   1.405       .  A
C814        C926   1.465       .  S
C815        C816   1.402       .  A
C815        C902   1.466       .  S
C816        C950   1.474       .  S
N817        N818   1.324       .  A
N817        C821   1.358       .  A
N817       Cu825   2.128       .  S
N818        C819   1.332       .  A
N818       Cu824   2.036       .  S
C819        C820   1.373       .  A
C819        H822   1.081       .  S
C820        C821   1.399       .  A
C820       C3727   1.486       .  S
C821        H823   1.082       .  S
Cu824       N827   2.035       .  S
Cu825       N835   2.128       .  S
Cu826       N828   2.029       .  S
Cu826       N834   2.029       .  S
N827        N828   1.313       .  A
N827        C831   1.340       .  A
N828        C829   1.339       .  A
C829        C830   1.378       .  A
C829        H832   1.081       .  S
C830        C831   1.380       .  A
C831        H833   1.081       .  S
N834        N835   1.322       .  A
N834        C838   1.330       .  A
N835        C836   1.359       .  A
C836        C837   1.401       .  A
C836        H839   1.082       .  S
C837        C838   1.373       .  A
C837       C3584   1.488       .  S
C838        H840   1.081       .  S
N841        N842   1.322       .  A
N841        C845   1.354       .  A
N841       Cu849   2.115       .  S
N842        C843   1.339       .  A
N842       Cu848   2.064       .  S
C843        C844   1.386       .  A
C843        H846   1.077       .  S
C844        C845   1.400       .  A
C844       C3767   1.504       .  S
C845        H847   1.081       .  S
Cu848       N851   2.066       .  S
Cu849       N859   2.113       .  S
Cu850       N852   2.045       .  S
Cu850       N858   2.047       .  S
N851        N852   1.319       .  A
N851        C855   1.344       .  A
N852        C853   1.341       .  A
C853        C854   1.377       .  A
C853        H856   1.081       .  S
C854        C855   1.382       .  A
C855        H857   1.081       .  S
N858        N859   1.320       .  A
N858        C862   1.336       .  A
N859        C860   1.356       .  A
C860        C861   1.400       .  A
C860        H863   1.081       .  S
C861        C862   1.382       .  A
C861       C3574   1.497       .  S
C862        H864   1.080       .  S
N865        N866   1.325       .  A
N865        C869   1.357       .  A
N865       Cu873   2.126       .  S
N866        C867   1.336       .  A
N866       Cu872   2.051       .  S
C867        C868   1.375       .  A
C867        H870   1.082       .  S
C868        C869   1.396       .  A
C868       C3757   1.485       .  S
C869        H871   1.082       .  S
Cu872       N875   2.050       .  S
Cu873       N883   2.124       .  S
Cu874       N876   2.038       .  S
Cu874       N882   2.039       .  S
N875        N876   1.316       .  A
N875        C879   1.342       .  A
N876        C877   1.340       .  A
C877        C878   1.377       .  A
C877        H880   1.081       .  S
C878        C879   1.380       .  A
C879        H881   1.081       .  S
N882        N883   1.321       .  A
N882        C886   1.333       .  A
N883        C884   1.358       .  A
C884        C885   1.401       .  A
C884        H887   1.081       .  S
C885        C886   1.378       .  A
C885       C3564   1.494       .  S
C886        H888   1.081       .  S
N889        N890   1.320       .  A
N889        C893   1.356       .  A
N889       Cu897   2.114       .  S
N890        C891   1.331       .  A
N890       Cu896   2.034       .  S
C891        C892   1.380       .  A
C891        H894   1.078       .  S
C892        C893   1.402       .  A
C892       C3554   1.497       .  S
C893        H895   1.081       .  S
Cu896       N899   2.033       .  S
Cu897       N907   2.116       .  S
Cu898       N900   2.049       .  S
Cu898       N906   2.051       .  S
N899        N900   1.316       .  A
N899        C903   1.339       .  A
N900        C901   1.343       .  A
C901        C902   1.381       .  A
C901        H904   1.081       .  S
C902        C903   1.376       .  A
C903        H905   1.082       .  S
N906        N907   1.325       .  A
N906        C910   1.335       .  A
N907        C908   1.356       .  A
C908        C909   1.395       .  A
C908        H911   1.082       .  S
C909        C910   1.376       .  A
C909       C3707   1.484       .  S
C910        H912   1.081       .  S
N913        N914   1.324       .  A
N913        C917   1.357       .  A
N913       Cu921   2.121       .  S
N914        C915   1.332       .  A
N914       Cu920   2.038       .  S
C915        C916   1.373       .  A
C915        H918   1.082       .  S
C916        C917   1.396       .  A
C916       C3534   1.483       .  S
C917        H919   1.082       .  S
Cu920       N923   2.036       .  S
Cu921       N931   2.120       .  S
Cu922       N924   2.034       .  S
Cu922       N930   2.035       .  S
N923        N924   1.314       .  A
N923        C927   1.341       .  A
N924        C925   1.339       .  A
C925        C926   1.378       .  A
C925        H928   1.081       .  S
C926        C927   1.379       .  A
C927        H929   1.081       .  S
N930        N931   1.323       .  A
N930        C934   1.332       .  A
N931        C932   1.357       .  A
C932        C933   1.398       .  A
C932        H935   1.082       .  S
C933        C934   1.375       .  A
C933       C3544   1.486       .  S
C934        H936   1.081       .  S
N937        N938   1.322       .  A
N937        C941   1.354       .  A
N937       Cu945   2.115       .  S
N938        C939   1.338       .  A
N938       Cu944   2.066       .  S
C939        C940   1.386       .  A
C939        H942   1.078       .  S
C940        C941   1.400       .  A
C940       C3694   1.504       .  S
C941        H943   1.081       .  S
Cu944       N947   2.067       .  S
Cu945       N955   2.113       .  S
Cu946       N948   2.045       .  S
Cu946       N954   2.046       .  S
N947        N948   1.319       .  A
N947        C951   1.345       .  A
N948        C949   1.341       .  A
C949        C950   1.377       .  A
C949        H952   1.081       .  S
C950        C951   1.383       .  A
C951        H953   1.081       .  S
N954        N955   1.319       .  A
N954        C958   1.335       .  A
N955        C956   1.356       .  A
C956        C957   1.401       .  A
C956        H959   1.081       .  S
C957        C958   1.383       .  A
C957       C3717   1.499       .  S
C958        H960   1.080       .  S
C961        C962   1.418       .  A
C961        C966   1.420       .  A
C961       C3547   1.488       .  S
C962        C963   1.418       .  A
C962       C4387   1.494       .  S
C963        C964   1.420       .  A
C963       C4287   1.492       .  S
C964        C965   1.420       .  A
C964       C3524   1.492       .  S
C965        C966   1.420       .  A
C965       C3514   1.494       .  S
C966       C3577   1.496       .  S
C967        C968   1.402       .  A
C967        C972   1.404       .  A
C967       C1034   1.464       .  S
C968        C969   1.402       .  A
C968       C1106   1.470       .  S
C969        C970   1.403       .  A
C969        C986   1.462       .  S
C970        C971   1.401       .  A
C970       C1010   1.467       .  S
C971        C972   1.401       .  A
C971       C1058   1.466       .  S
C972       C1082   1.465       .  S
N973        N974   1.320       .  A
N973        C977   1.359       .  A
N973       Cu981   2.129       .  S
N974        C975   1.328       .  A
N974       Cu980   2.022       .  S
C975        C976   1.375       .  A
C975        H978   1.079       .  S
C976        C977   1.405       .  A
C976       C3594   1.495       .  S
C977        H979   1.081       .  S
Cu980       N983   2.022       .  S
Cu981       N991   2.130       .  S
Cu982       N984   2.033       .  S
Cu982       N990   2.035       .  S
N983        N984   1.312       .  A
N983        C987   1.338       .  A
N984        C985   1.340       .  A
C985        C986   1.380       .  A
C985        H988   1.081       .  S
C986        C987   1.377       .  A
C987        H989   1.082       .  S
N990        N991   1.323       .  A
N990        C994   1.329       .  A
N991        C992   1.359       .  A
C992        C993   1.402       .  A
C992        H995   1.081       .  S
C993        C994   1.375       .  A
C993       C4267   1.493       .  S
C994        H996   1.080       .  S
N997        N998   1.323       .  A
N997       C1001   1.359       .  A
N997      Cu1005   2.130       .  S
N998        C999   1.333       .  A
N998      Cu1004   2.041       .  S
C999       C1000   1.376       .  A
C999       H1002   1.081       .  S
C1000      C1001   1.400       .  A
C1000      C4257   1.492       .  S
C1001      H1003   1.082       .  S
Cu1004     N1007   2.040       .  S
Cu1005     N1015   2.129       .  S
Cu1006     N1008   2.039       .  S
Cu1006     N1014   2.040       .  S
N1007      N1008   1.315       .  A
N1007      C1011   1.341       .  A
N1008      C1009   1.340       .  A
C1009      C1010   1.379       .  A
C1009      H1012   1.081       .  S
C1010      C1011   1.379       .  A
C1011      H1013   1.081       .  S
N1014      N1015   1.322       .  A
N1014      C1018   1.333       .  A
N1015      C1016   1.358       .  A
C1016      C1017   1.402       .  A
C1016      H1019   1.081       .  S
C1017      C1018   1.377       .  A
C1017      C3507   1.495       .  S
C1018      H1020   1.080       .  S
N1021      N1022   1.323       .  A
N1021      C1025   1.358       .  A
N1021     Cu1029   2.128       .  S
N1022      C1023   1.332       .  A
N1022     Cu1028   2.034       .  S
C1023      C1024   1.374       .  A
C1023      H1026   1.081       .  S
C1024      C1025   1.400       .  A
C1024      C3494   1.489       .  S
C1025      H1027   1.082       .  S
Cu1028     N1031   2.033       .  S
Cu1029     N1039   2.128       .  S
Cu1030     N1032   2.031       .  S
Cu1030     N1038   2.032       .  S
N1031      N1032   1.313       .  A
N1031      C1035   1.339       .  A
N1032      C1033   1.340       .  A
C1033      C1034   1.378       .  A
C1033      H1036   1.081       .  S
C1034      C1035   1.379       .  A
C1035      H1037   1.081       .  S
N1038      N1039   1.323       .  A
N1038      C1042   1.330       .  A
N1039      C1040   1.359       .  A
C1040      C1041   1.401       .  A
C1040      H1043   1.082       .  S
C1041      C1042   1.374       .  A
C1041      C3527   1.490       .  S
C1042      H1044   1.081       .  S
N1045      N1046   1.323       .  A
N1045      C1049   1.357       .  A
N1045     Cu1053   2.121       .  S
N1046      C1047   1.333       .  A
N1046     Cu1052   2.043       .  S
C1047      C1048   1.378       .  A
C1047      H1050   1.080       .  S
C1048      C1049   1.399       .  A
C1048      C4097   1.492       .  S
C1049      H1051   1.081       .  S
Cu1052     N1055   2.042       .  S
Cu1053     N1063   2.120       .  S
Cu1054     N1056   2.040       .  S
Cu1054     N1062   2.041       .  S
N1055      N1056   1.315       .  A
N1055      C1059   1.341       .  A
N1056      C1057   1.341       .  A
C1057      C1058   1.378       .  A
C1057      H1060   1.081       .  S
C1058      C1059   1.379       .  A
C1059      H1061   1.081       .  S
N1062      N1063   1.322       .  A
N1062      C1066   1.332       .  A
N1063      C1064   1.358       .  A
C1064      C1065   1.399       .  A
C1064      H1067   1.081       .  S
C1065      C1066   1.377       .  A
C1065      C3484   1.490       .  S
C1066      H1068   1.081       .  S
N1069      N1070   1.322       .  A
N1069      C1073   1.357       .  A
N1069     Cu1077   2.123       .  S
N1070      C1071   1.333       .  A
N1070     Cu1076   2.040       .  S
C1071      C1072   1.378       .  A
C1071      H1074   1.080       .  S
C1072      C1073   1.400       .  A
C1072      C4107   1.493       .  S
C1073      H1075   1.081       .  S
Cu1076     N1079   2.039       .  S
Cu1077     N1087   2.123       .  S
Cu1078     N1080   2.040       .  S
Cu1078     N1086   2.042       .  S
N1079      N1080   1.315       .  A
N1079      C1083   1.340       .  A
N1080      C1081   1.341       .  A
C1081      C1082   1.379       .  A
C1081      H1084   1.081       .  S
C1082      C1083   1.378       .  A
C1083      H1085   1.081       .  S
N1086      N1087   1.322       .  A
N1086      C1090   1.333       .  A
N1087      C1088   1.358       .  A
C1088      C1089   1.400       .  A
C1088      H1091   1.081       .  S
C1089      C1090   1.378       .  A
C1089      C3517   1.493       .  S
C1090      H1092   1.080       .  S
N1093      N1094   1.321       .  A
N1093      C1097   1.358       .  A
N1093     Cu1101   2.123       .  S
N1094      C1095   1.334       .  A
N1094     Cu1100   2.044       .  S
C1095      C1096   1.380       .  A
C1095      H1098   1.080       .  S
C1096      C1097   1.401       .  A
C1096      C3474   1.496       .  S
C1097      H1099   1.081       .  S
Cu1100     N1103   2.043       .  S
Cu1101     N1111   2.124       .  S
Cu1102     N1104   2.056       .  S
Cu1102     N1110   2.058       .  S
N1103      N1104   1.317       .  A
N1103      C1107   1.341       .  A
N1104      C1105   1.343       .  A
C1105      C1106   1.381       .  A
C1105      H1108   1.081       .  S
C1106      C1107   1.378       .  A
C1107      H1109   1.081       .  S
N1110      N1111   1.324       .  A
N1110      C1114   1.338       .  A
N1111      C1112   1.356       .  A
C1112      C1113   1.397       .  A
C1112      H1115   1.081       .  S
C1113      C1114   1.379       .  A
C1113      C3607   1.491       .  S
C1114      H1116   1.081       .  S
C1117      C1118   1.419       .  A
C1117      C1122   1.420       .  A
C1117      C3587   1.492       .  S
C1118      C1119   1.418       .  A
C1118      C3667   1.493       .  S
C1119      C1120   1.417       .  A
C1119      C3654   1.490       .  S
C1120      C1121   1.419       .  A
C1120      C3504   1.493       .  S
C1121      C1122   1.421       .  A
C1121      C3487   1.492       .  S
C1122      C3567   1.496       .  S
C1123      C1124   1.421   1_564  A
C1123      C1128   1.420       .  A
C1123      C3877   1.496       .  S
C1124      C1125   1.418       .  A
C1124      C3897   1.488       .  S
C1125      C1126   1.418   1_545  A
C1125      C3454   1.499       .  S
C1126      C1127   1.419       .  A
C1126      C3464   1.487       .  S
C1127      C1128   1.422   1_556  A
C1127      C3437   1.497       .  S
C1128      C3444   1.496       .  S
C1129      C1130   1.419       .  A
C1129      C1134   1.419       .  A
C1129      C4377   1.498       .  S
C1130      C1131   1.419       .  A
C1130      C4317   1.489       .  S
C1131      C1132   1.417       .  A
C1131      C3424   1.489       .  S
C1132      C1133   1.416       .  A
C1132      C3414   1.494       .  S
C1133      C1134   1.420       .  A
C1133      C3394   1.489       .  S
C1134      C3404   1.490       .  S
C1135      C1136   1.420       .  A
C1135      C1140   1.421       .  A
C1135      C4277   1.492       .  S
C1136      C1137   1.419       .  A
C1136      C4337   1.495       .  S
C1137      C1138   1.420       .  A
C1137      C3364   1.493       .  S
C1138      C1139   1.420       .  A
C1138      C3354   1.491       .  S
C1139      C1140   1.419       .  A
C1139      C3374   1.495       .  S
C1140      C3387   1.494       .  S
C1141      C1142   1.419       .  A
C1141      C1146   1.417       .  A
C1141      C4357   1.489       .  S
C1142      C1143   1.420       .  A
C1142      C4297   1.495       .  S
C1143      C1144   1.421       .  A
C1143      C3314   1.496       .  S
C1144      C1145   1.420       .  A
C1144      C3324   1.490       .  S
C1145      C1146   1.418       .  A
C1145      C3334   1.494       .  S
C1146      C3344   1.493       .  S
C1147      C1148   1.420       .  A
C1147      C1152   1.419       .  A
C1147      C3294   1.495       .  S
C1148      C1149   1.418       .  A
C1148      C3304   1.487       .  S
C1149      C1150   1.418       .  A
C1149      C3254   1.497       .  S
C1150      C1151   1.421       .  A
C1150      C3267   1.494       .  S
C1151      C1152   1.420       .  A
C1151      C3274   1.492       .  S
C1152      C3284   1.495       .  S
C1153      C1154   1.421   1_455  A
C1153      C1158   1.418       .  A
C1153      C4037   1.488       .  S
C1154      C1155   1.420       .  A
C1154      C4027   1.493       .  S
C1155      C1156   1.423       .  A
C1155      C3214   1.501       .  S
C1156      C1157   1.422       .  A
C1156      C3224   1.497       .  S
C1157      C1158   1.419   1_655  A
C1157      C3234   1.489       .  S
C1158      C3244   1.500       .  S
C1159      C1160   1.418   1_455  A
C1159      C1164   1.418       .  A
C1159      C4187   1.491       .  S
C1160      C1161   1.419       .  A
C1160      C4147   1.492       .  S
C1161      C1162   1.418       .  A
C1161      C3204   1.490       .  S
C1162      C1163   1.420       .  A
C1162      C3194   1.497       .  S
C1163      C1164   1.420   1_655  A
C1163      C3184   1.488       .  S
C1164      C3174   1.495       .  S
C1165      C1166   1.402       .  A
C1165      C1170   1.402       .  A
C1165      C1304   1.470       .  S
C1166      C1167   1.403       .  A
C1166      C1184   1.463       .  S
C1167      C1168   1.402       .  A
C1167      C1256   1.466       .  S
C1168      C1169   1.401       .  A
C1168      C1208   1.465       .  S
C1169      C1170   1.403       .  A
C1169      C1232   1.467       .  S
C1170      C1280   1.462       .  S
N1171      N1172   1.323       .  A
N1171      C1175   1.359       .  A
N1171     Cu1179   2.132       .  S
N1172      C1173   1.330       .  A
N1172     Cu1178   2.030       .  S
C1173      C1174   1.374       .  A
C1173      H1176   1.080       .  S
C1174      C1175   1.402       .  A
C1174      C3327   1.491       .  S
C1175      H1177   1.081       .  S
Cu1178     N1181   2.029       .  S
Cu1179     N1189   2.132       .  S
Cu1180     N1182   2.029       .  S
Cu1180     N1188   2.030       .  S
N1181      N1182   1.312       .  A
N1181      C1185   1.339       .  A
N1182      C1183   1.339       .  A
C1183      C1184   1.379       .  A
C1183      H1186   1.082       .  S
C1184      C1185   1.379       .  A
C1185      H1187   1.081       .  S
N1188      N1189   1.322       .  A
N1188      C1192   1.330       .  A
N1189      C1190   1.359       .  A
C1190      C1191   1.404       .  A
C1190      H1193   1.081       .  S
C1191      C1192   1.376       .  A
C1191      C3164   1.496       .  S
C1192      H1194   1.079       .  S
N1195      N1196   1.323       .  A
N1195      C1199   1.357       .  A
N1195     Cu1203   2.118       .  S
N1196      C1197   1.331       .  A
N1196     Cu1202   2.036       .  S
C1197      C1198   1.374       .  A
C1197      H1200   1.081       .  S
C1198      C1199   1.398       .  A
C1198      C3427   1.485       .  S
C1199      H1201   1.082       .  S
Cu1202     N1205   2.035       .  S
Cu1203     N1213   2.119       .  S
Cu1204     N1206   2.040       .  S
Cu1204     N1212   2.041       .  S
N1205      N1206   1.315       .  A
N1205      C1209   1.340       .  A
N1206      C1207   1.340       .  A
C1207      C1208   1.379       .  A
C1207      H1210   1.082       .  S
C1208      C1209   1.378       .  A
C1209      H1211   1.081       .  S
N1212      N1213   1.323       .  A
N1212      C1216   1.333       .  A
N1213      C1214   1.357       .  A
C1214      C1215   1.398       .  A
C1214      H1217   1.082       .  S
C1215      C1216   1.376       .  A
C1215      C3154   1.487       .  S
C1216      H1218   1.081       .  S
N1219      N1220   1.322       .  A
N1219      C1223   1.358       .  A
N1219     Cu1227   2.126       .  S
N1220      C1221   1.334       .  A
N1220     Cu1226   2.043       .  S
C1221      C1222   1.378       .  A
C1221      H1224   1.080       .  S
C1222      C1223   1.401       .  A
C1222      C3197   1.495       .  S
C1223      H1225   1.081       .  S
Cu1226     N1229   2.042       .  S
Cu1227     N1237   2.126       .  S
Cu1228     N1230   2.044       .  S
Cu1228     N1236   2.045       .  S
N1229      N1230   1.316       .  A
N1229      C1233   1.341       .  A
N1230      C1231   1.341       .  A
C1231      C1232   1.379       .  A
C1231      H1234   1.081       .  S
C1232      C1233   1.378       .  A
C1233      H1235   1.081       .  S
N1236      N1237   1.322       .  A
N1236      C1240   1.334       .  A
N1237      C1238   1.357       .  A
C1238      C1239   1.402       .  A
C1238      H1241   1.081       .  S
C1239      C1240   1.380       .  A
C1239      C3417   1.498       .  S
C1240      H1242   1.079       .  S
N1243      N1244   1.323       .  A
N1243      C1247   1.359       .  A
N1243     Cu1251   2.130       .  S
N1244      C1245   1.334       .  A
N1244     Cu1250   2.045       .  S
C1245      C1246   1.378       .  A
C1245      H1248   1.080       .  S
C1246      C1247   1.401       .  A
C1246      C3317   1.495       .  S
C1247      H1249   1.081       .  S
Cu1250     N1253   2.044       .  S
Cu1251     N1261   2.129       .  S
Cu1252     N1254   2.036       .  S
Cu1252     N1260   2.038       .  S
N1253      N1254   1.315       .  A
N1253      C1257   1.341       .  A
N1254      C1255   1.340       .  A
C1255      C1256   1.378       .  A
C1255      H1258   1.082       .  S
C1256      C1257   1.380       .  A
C1257      H1259   1.081       .  S
N1260      N1261   1.322       .  A
N1260      C1264   1.333       .  A
N1261      C1262   1.359       .  A
C1262      C1263   1.403       .  A
C1262      H1265   1.081       .  S
C1263      C1264   1.378       .  A
C1263      C3144   1.496       .  S
C1264      H1266   1.080       .  S
N1267      N1268   1.323       .  A
N1267      C1271   1.357       .  A
N1267     Cu1275   2.123       .  S
N1268      C1269   1.332       .  A
N1268     Cu1274   2.035       .  S
C1269      C1270   1.374       .  A
C1269      H1272   1.081       .  S
C1270      C1271   1.398       .  A
C1270      C3307   1.486       .  S
C1271      H1273   1.082       .  S
Cu1274     N1277   2.034       .  S
Cu1275     N1285   2.123       .  S
Cu1276     N1278   2.028       .  S
Cu1276     N1284   2.029       .  S
N1277      N1278   1.313       .  A
N1277      C1281   1.340       .  A
N1278      C1279   1.339       .  A
C1279      C1280   1.377       .  A
C1279      H1282   1.081       .  S
C1280      C1281   1.379       .  A
C1281      H1283   1.081       .  S
N1284      N1285   1.322       .  A
N1284      C1288   1.330       .  A
N1285      C1286   1.358       .  A
C1286      C1287   1.401       .  A
C1286      H1289   1.081       .  S
C1287      C1288   1.375       .  A
C1287      C3207   1.489       .  S
C1288      H1290   1.080       .  S
N1291      N1292   1.321       .  A
N1291      C1295   1.358       .  A
N1291     Cu1299   2.125       .  S
N1292      C1293   1.334       .  A
N1292     Cu1298   2.042       .  S
C1293      C1294   1.379       .  A
C1293      H1296   1.080       .  S
C1294      C1295   1.402       .  A
C1294      C3297   1.496       .  S
C1295      H1297   1.081       .  S
Cu1298     N1301   2.041       .  S
Cu1299     N1309   2.127       .  S
Cu1300     N1302   2.053       .  S
Cu1300     N1308   2.055       .  S
N1301      N1302   1.317       .  A
N1301      C1305   1.341       .  A
N1302      C1303   1.343       .  A
C1303      C1304   1.381       .  A
C1303      H1306   1.081       .  S
C1304      C1305   1.378       .  A
C1305      H1307   1.081       .  S
N1308      N1309   1.324       .  A
N1308      C1312   1.338       .  A
N1309      C1310   1.357       .  A
C1310      C1311   1.397       .  A
C1310      H1313   1.082       .  S
C1311      C1312   1.377       .  A
C1311      C3134   1.490       .  S
C1312      H1314   1.081       .  S
C1315      C1316   1.419       .  A
C1315      C1320   1.419       .  A
C1315      C3157   1.491       .  S
C1316      C1317   1.418       .  A
C1316      C3147   1.493       .  S
C1317      C1318   1.419       .  A
C1317      C3124   1.491       .  S
C1318      C1319   1.420       .  A
C1318      C3114   1.494       .  S
C1319      C1320   1.419       .  A
C1319      C3104   1.494       .  S
C1320      C3094   1.493       .  S
C1321      C1322   1.420   1_556  A
C1321      C1326   1.420   1_565  A
C1321      C3827   1.493   1_565  S
C1322      C1323   1.420       .  A
C1322      C3804   1.493       .  S
C1323      C1324   1.419       .  A
C1323      C3074   1.494       .  S
C1324      C1325   1.418   1_565  A
C1324      C3084   1.489   1_565  S
C1325      C1326   1.418   1_554  A
C1325      C3054   1.493       .  S
C1326      C3067   1.492       .  S
C1327      C1328   1.420       .  A
C1327      C1332   1.420   1_554  A
C1327      C4007   1.496   1_554  S
C1328      C1329   1.419       .  A
C1328      C4057   1.491       .  S
C1329      C1330   1.419       .  A
C1329      C3014   1.495       .  S
C1330      C1331   1.418   1_554  A
C1330      C3024   1.489   1_554  S
C1331      C1332   1.419       .  A
C1331      C3034   1.496       .  S
C1332      C3044   1.489       .  S
C1333      C1334   1.402       .  A
C1333      C1338   1.404       .  A
C1333      C1424   1.463       .  S
C1334      C1335   1.402       .  A
C1334      C1472   1.470       .  S
C1335      C1336   1.403   1_554  A
C1335      C1448   1.463       .  S
C1336      C1337   1.401       .  A
C1336      C1352   1.465       .  S
C1337      C1338   1.401   1_556  A
C1337      C1376   1.467       .  S
C1338      C1400   1.466       .  S
N1339      N1340   1.321       .  A
N1339      C1343   1.358       .  A
N1339     Cu1347   2.125       .  S
N1340      C1341   1.331       .  A
N1340     Cu1346   2.031       .  S
C1341      C1342   1.376       .  A
C1341      H1344   1.080       .  S
C1342      C1343   1.402       .  A
C1342      C3737   1.493       .  S
C1343      H1345   1.081       .  S
Cu1346     N1349   2.031       .  S
Cu1347     N1357   2.127       .  S
Cu1348     N1350   2.043       .  S
Cu1348     N1356   2.045       .  S
N1349      N1350   1.315       .  A
N1349      C1353   1.340       .  A
N1350      C1351   1.341       .  A
C1351      C1352   1.380       .  A
C1351      H1354   1.081       .  S
C1352      C1353   1.377       .  A
C1353      H1355   1.081       .  S
N1356      N1357   1.324       .  A
N1356      C1360   1.335       .  A
N1357      C1358   1.357       .  A
C1358      C1359   1.398       .  A
C1358      H1361   1.082       .  S
C1359      C1360   1.375       .  A
C1359      C3004   1.487       .  S
C1360      H1362   1.081       .  S
N1363      N1364   1.323       .  A
N1363      C1367   1.356       .  A
N1363     Cu1371   2.115       .  S
N1364      C1365   1.334       .  A
N1364     Cu1370   2.048       .  S
C1365      C1366   1.379       .  A
C1365      H1368   1.080       .  S
C1366      C1367   1.398       .  A
C1366      C3064   1.492       .  S
C1367      H1369   1.081       .  S
Cu1370     N1373   2.046       .  S
Cu1371     N1381   2.115       .  S
Cu1372     N1374   2.039       .  S
Cu1372     N1380   2.041       .  S
N1373      N1374   1.316       .  A
N1373      C1377   1.342       .  A
N1374      C1375   1.341       .  A
C1375      C1376   1.378       .  A
C1375      H1378   1.081       .  S
C1376      C1377   1.380       .  A
C1377      H1379   1.081       .  S
N1380      N1381   1.321       .  A
N1380      C1384   1.332       .  A
N1381      C1382   1.356       .  A
C1382      C1383   1.401       .  A
C1382      H1385   1.081       .  S
C1383      C1384   1.380       .  A
C1383      C2994   1.495       .  S
C1384      H1386   1.079       .  S
N1387      N1388   1.323       .  A
N1387      C1391   1.358       .  A
N1387     Cu1395   2.128       .  S
N1388      C1389   1.332       .  A
N1388     Cu1394   2.038       .  S
C1389      C1390   1.376       .  A
C1389      H1392   1.080       .  S
C1390      C1391   1.401       .  A
C1390      C3057   1.492       .  S
C1391      H1393   1.081       .  S
Cu1394     N1397   2.036       .  S
Cu1395     N1405   2.129       .  S
Cu1396     N1398   2.037   1_556  S
Cu1396     N1404   2.038       .  S
N1397      N1398   1.314       .  A
N1397      C1401   1.340       .  A
N1398      C1399   1.341   1_554  A
C1399      C1400   1.379   1_556  A
C1399      H1402   1.081       .  S
C1400      C1401   1.379       .  A
C1401      H1403   1.081       .  S
N1404      N1405   1.323   1_556  A
N1404      C1408   1.332       .  A
N1405      C1406   1.359       .  A
C1406      C1407   1.401   1_554  A
C1406      H1409   1.081       .  S
C1407      C1408   1.376       .  A
C1407      C4477   1.492       .  S
C1408      H1410   1.081       .  S
N1411      N1412   1.323       .  A
N1411      C1415   1.358       .  A
N1411     Cu1419   2.125       .  S
N1412      C1413   1.330       .  A
N1412     Cu1418   2.034       .  S
C1413      C1414   1.375       .  A
C1413      H1416   1.080       .  S
C1414      C1415   1.400       .  A
C1414      C4487   1.490       .  S
C1415      H1417   1.081       .  S
Cu1418     N1421   2.033       .  S
Cu1419     N1429   2.124       .  S
Cu1420     N1422   2.029       .  S
Cu1420     N1428   2.030       .  S
N1421      N1422   1.313       .  A
N1421      C1425   1.340       .  A
N1422      C1423   1.339       .  A
C1423      C1424   1.378       .  A
C1423      H1426   1.081       .  S
C1424      C1425   1.379       .  A
C1425      H1427   1.081       .  S
N1428      N1429   1.322       .  A
N1428      C1432   1.330       .  A
N1429      C1430   1.358       .  A
C1430      C1431   1.402       .  A
C1430      H1433   1.081       .  S
C1431      C1432   1.375       .  A
C1431      C2984   1.492       .  S
C1432      H1434   1.079       .  S
N1435      N1436   1.323       .  A
N1435      C1439   1.358       .  A
N1435     Cu1443   2.124       .  S
N1436      C1437   1.331       .  A
N1436     Cu1442   2.038       .  S
C1437      C1438   1.375       .  A
C1437      H1440   1.081       .  S
C1438      C1439   1.399       .  A
C1438      C3747   1.488       .  S
C1439      H1441   1.082       .  S
Cu1442     N1445   2.037       .  S
Cu1443     N1453   2.123   1_554  S
Cu1444     N1446   2.030   1_556  S
Cu1444     N1452   2.031       .  S
N1445      N1446   1.314       .  A
N1445      C1449   1.341       .  A
N1446      C1447   1.339   1_554  A
C1447      C1448   1.377   1_556  A
C1447      H1450   1.082       .  S
C1448      C1449   1.379       .  A
C1449      H1451   1.081       .  S
N1452      N1453   1.321       .  A
N1452      C1456   1.330       .  A
N1453      C1454   1.358       .  A
C1454      C1455   1.402       .  A
C1454      H1457   1.081       .  S
C1455      C1456   1.377       .  A
C1455      C3027   1.493       .  S
C1456      H1458   1.079       .  S
N1459      N1460   1.323       .  A
N1459      C1463   1.355       .  A
N1459     Cu1467   2.114       .  S
N1460      C1461   1.337       .  A
N1460     Cu1466   2.052       .  S
C1461      C1462   1.379       .  A
C1461      H1464   1.081       .  S
C1462      C1463   1.396       .  A
C1462      C3017   1.490       .  S
C1463      H1465   1.081       .  S
Cu1466     N1469   2.051       .  S
Cu1467     N1477   2.113       .  S
Cu1468     N1470   2.050       .  S
Cu1468     N1476   2.051       .  S
N1469      N1470   1.318       .  A
N1469      C1473   1.342       .  A
N1470      C1471   1.342       .  A
C1471      C1472   1.379       .  A
C1471      H1474   1.081       .  S
C1472      C1473   1.379       .  A
C1473      H1475   1.081       .  S
N1476      N1477   1.322       .  A
N1476      C1480   1.336       .  A
N1477      C1478   1.355       .  A
C1478      C1479   1.397       .  A
C1478      H1481   1.081       .  S
C1479      C1480   1.380       .  A
C1479      C2977   1.491       .  S
C1480      H1482   1.081       .  S
C1483      C1484   1.419       .  A
C1483      C1488   1.418       .  A
C1483      C3537   1.494       .  S
C1484      C1485   1.419       .  A
C1484      C3557   1.490       .  S
C1485      C1486   1.418       .  A
C1485      C2974   1.496       .  S
C1486      C1487   1.418       .  A
C1486      C2987   1.488       .  S
C1487      C1488   1.417       .  A
C1487      C2957   1.494       .  S
C1488      C2964   1.489       .  S
C1489      C1490   1.402       .  A
C1489      C1494   1.402       .  A
C1489      C1532   1.468       .  S
C1490      C1491   1.403   1_565  A
C1490      C1580   1.464       .  S
C1491      C1492   1.402       .  A
C1491      C1604   1.468       .  S
C1492      C1493   1.402   1_545  A
C1492      C1556   1.463       .  S
C1493      C1494   1.403       .  A
C1493      C1628   1.470       .  S
C1494      C1508   1.462       .  S
N1495      N1496   1.321       .  A
N1495      C1499   1.360       .  A
N1495     Cu1503   2.131       .  S
N1496      C1497   1.329       .  A
N1496     Cu1502   2.025       .  S
C1497      C1498   1.375       .  A
C1497      H1500   1.079       .  S
C1498      C1499   1.405       .  A
C1498      C3787   1.496       .  S
C1499      H1501   1.081       .  S
Cu1502     N1505   2.025       .  S
Cu1503     N1513   2.133       .  S
Cu1504     N1506   2.033       .  S
Cu1504     N1512   2.034       .  S
N1505      N1506   1.313       .  A
N1505      C1509   1.338       .  A
N1506      C1507   1.340       .  A
C1507      C1508   1.379       .  A
C1507      H1510   1.082       .  S
C1508      C1509   1.377       .  A
C1509      H1511   1.081       .  S
N1512      N1513   1.324       .  A
N1512      C1516   1.331       .  A
N1513      C1514   1.359       .  A
C1514      C1515   1.401       .  A
C1514      H1517   1.082       .  S
C1515      C1516   1.373       .  A
C1515      C3127   1.489       .  S
C1516      H1518   1.081       .  S
N1519      N1520   1.322       .  A
N1519      C1523   1.357       .  A
N1519     Cu1527   2.122       .  S
N1520      C1521   1.334       .  A
N1520     Cu1526   2.046       .  S
C1521      C1522   1.379       .  A
C1521      H1524   1.080       .  S
C1522      C1523   1.400       .  A
C1522      C3077   1.495       .  S
C1523      H1525   1.081       .  S
Cu1526     N1529   2.044       .  S
Cu1527     N1537   2.122       .  S
Cu1528     N1530   2.044       .  S
Cu1528     N1536   2.046       .  S
N1529      N1530   1.316       .  A
N1529      C1533   1.341       .  A
N1530      C1531   1.342       .  A
C1531      C1532   1.379       .  A
C1531      H1534   1.081       .  S
C1532      C1533   1.379       .  A
C1533      H1535   1.081       .  S
N1536      N1537   1.322       .  A
N1536      C1540   1.334       .  A
N1537      C1538   1.357       .  A
C1538      C1539   1.400       .  A
C1538      H1541   1.081       .  S
C1539      C1540   1.379       .  A
C1539      C3117   1.495       .  S
C1540      H1542   1.080       .  S
N1543      N1544   1.322       .  A
N1543      C1547   1.358       .  A
N1543     Cu1551   2.123       .  S
N1544      C1545   1.330       .  A
N1544     Cu1550   2.034       .  S
C1545      C1546   1.376       .  A
C1545      H1548   1.080       .  S
C1546      C1547   1.400       .  A
C1546      C2967   1.491       .  S
C1547      H1549   1.081       .  S
Cu1550     N1553   2.033       .  S
Cu1551     N1561   2.122       .  S
Cu1552     N1554   2.030       .  S
Cu1552     N1560   2.031       .  S
N1553      N1554   1.313       .  A
N1553      C1557   1.340       .  A
N1554      C1555   1.339       .  A
C1555      C1556   1.378       .  A
C1555      H1558   1.081       .  S
C1556      C1557   1.379       .  A
C1557      H1559   1.082       .  S
N1560      N1561   1.322       .  A
N1560      C1564   1.329       .  A
N1561      C1562   1.358       .  A
C1562      C1563   1.402       .  A
C1562      H1565   1.081       .  S
C1563      C1564   1.376       .  A
C1563      C2944   1.493       .  S
C1564      H1566   1.079       .  S
N1567      N1568   1.322       .  A
N1567      C1571   1.358       .  A
N1567     Cu1575   2.125       .  S
N1568      C1569   1.330       .  A
N1568     Cu1574   2.030       .  S
C1569      C1570   1.374       .  A
C1569      H1572   1.081       .  S
C1570      C1571   1.400       .  A
C1570      C4404   1.488       .  S
C1571      H1573   1.082       .  S
Cu1574     N1577   2.029       .  S
Cu1575     N1585   2.125       .  S
Cu1576     N1578   2.034   1_545  S
Cu1576     N1584   2.035       .  S
N1577      N1578   1.313       .  A
N1577      C1581   1.339       .  A
N1578      C1579   1.340       .  A
C1579      C1580   1.379       .  A
C1579      H1582   1.081   1_565  S
C1580      C1581   1.378       .  A
C1581      H1583   1.081       .  S
N1584      N1585   1.323   1_545  A
N1584      C1588   1.331       .  A
N1585      C1586   1.358       .  A
C1586      C1587   1.399   1_565  A
C1586      H1589   1.081       .  S
C1587      C1588   1.374       .  A
C1587      C3087   1.488       .  S
C1588      H1590   1.081       .  S
N1591      N1592   1.323       .  A
N1591      C1595   1.357       .  A
N1591     Cu1599   2.121       .  S
N1592      C1593   1.334       .  A
N1592     Cu1598   2.047       .  S
C1593      C1594   1.377       .  A
C1593      H1596   1.081       .  S
C1594      C1595   1.398       .  A
C1594      C2954   1.490       .  S
C1595      H1597   1.081       .  S
Cu1598     N1601   2.045       .  S
Cu1599     N1609   2.120       .  S
Cu1600     N1602   2.040       .  S
Cu1600     N1608   2.041       .  S
N1601      N1602   1.316       .  A
N1601      C1605   1.342       .  A
N1602      C1603   1.341       .  A
C1603      C1604   1.378       .  A
C1603      H1606   1.081       .  S
C1604      C1605   1.380       .  A
C1605      H1607   1.081       .  S
N1608      N1609   1.322       .  A
N1608      C1612   1.333       .  A
N1609      C1610   1.358       .  A
C1610      C1611   1.400       .  A
C1610      H1613   1.081       .  S
C1611      C1612   1.378       .  A
C1611      C4397   1.493       .  S
C1612      H1614   1.080       .  S
N1615      N1616   1.323       .  A
N1615      C1619   1.358       .  A
N1615     Cu1623   2.133   1_545  S
N1616      C1617   1.337       .  A
N1616     Cu1622   2.049       .  S
C1617      C1618   1.377       .  A
C1617      H1620   1.081       .  S
C1618      C1619   1.400       .  A
C1618      C3777   1.493       .  S
C1619      H1621   1.082   1_545  S
Cu1622     N1625   2.048   1_545  S
Cu1623     N1633   2.133       .  S
Cu1624     N1626   2.050       .  S
Cu1624     N1632   2.052       .  S
N1625      N1626   1.317       .  A
N1625      C1629   1.342   1_565  A
N1626      C1627   1.343       .  A
C1627      C1628   1.380       .  A
C1627      H1630   1.081       .  S
C1628      C1629   1.379   1_565  A
C1629      H1631   1.081       .  S
N1632      N1633   1.323       .  A
N1632      C1636   1.337       .  A
N1633      C1634   1.359       .  A
C1634      C1635   1.400       .  A
C1634      H1637   1.082       .  S
C1635      C1636   1.379       .  A
C1635      C2934   1.496       .  S
C1636      H1638   1.081       .  S
C1639      C1640   1.422       .  A
C1639      C1644   1.423       .  A
C1639      C3137   1.498       .  S
C1640      C1641   1.424   1_565  A
C1640      C4167   1.500       .  S
C1641      C1642   1.423       .  A
C1641      C4177   1.501       .  S
C1642      C1643   1.420   1_545  A
C1642      C2947   1.489       .  S
C1643      C1644   1.419       .  A
C1643      C2937   1.504       .  S
C1644      C3167   1.490       .  S
C1645      C1646   1.406       .  A
C1645      C1650   1.403       .  A
C1645      C1760   1.467       .  S
C1646      C1647   1.403       .  A
C1646      C1712   1.467       .  S
C1647      C1648   1.405       .  A
C1647      C1664   1.473       .  S
C1648      C1649   1.408       .  A
C1648      C1736   1.469       .  S
C1649      C1650   1.405       .  A
C1649      C1688   1.467       .  S
C1650      C1784   1.474       .  S
N1651      N1652   1.319       .  A
N1651      C1655   1.356       .  A
N1651     Cu1659   2.114       .  S
N1652      C1653   1.334       .  A
N1652     Cu1658   2.043       .  S
C1653      C1654   1.382       .  A
C1653      H1656   1.080       .  S
C1654      C1655   1.402       .  A
C1654      C3384   1.498       .  S
C1655      H1657   1.081       .  S
Cu1658     N1661   2.041       .  S
Cu1659     N1669   2.117       .  S
Cu1660     N1662   2.066       .  S
Cu1660     N1668   2.065       .  S
N1661      N1662   1.318       .  A
N1661      C1665   1.341       .  A
N1662      C1663   1.344       .  A
C1663      C1664   1.383       .  A
C1663      H1666   1.081       .  S
C1664      C1665   1.377       .  A
C1665      H1667   1.081       .  S
N1668      N1669   1.322       .  A
N1668      C1672   1.338       .  A
N1669      C1670   1.354       .  A
C1670      C1671   1.401       .  A
C1670      H1673   1.080       .  S
C1671      C1672   1.387       .  A
C1671      C2924   1.506       .  S
C1672      H1674   1.076       .  S
N1675      N1676   1.322       .  A
N1675      C1679   1.357       .  A
N1675     Cu1683   2.117       .  S
N1676      C1677   1.332       .  A
N1676     Cu1682   2.034       .  S
C1677      C1678   1.376       .  A
C1677      H1680   1.081       .  S
C1678      C1679   1.399       .  A
C1678      C3397   1.488       .  S
C1679      H1681   1.081       .  S
Cu1682     N1685   2.033       .  S
Cu1683     N1693   2.118       .  S
Cu1684     N1686   2.043       .  S
Cu1684     N1692   2.045       .  S
N1685      N1686   1.314       .  A
N1685      C1689   1.339       .  A
N1686      C1687   1.342       .  A
C1687      C1688   1.381       .  A
C1687      H1690   1.081       .  S
C1688      C1689   1.378       .  A
C1689      H1691   1.081       .  S
N1692      N1693   1.325       .  A
N1692      C1696   1.333       .  A
N1693      C1694   1.357       .  A
C1694      C1695   1.394       .  A
C1694      H1697   1.082       .  S
C1695      C1696   1.373       .  A
C1695      C3227   1.479       .  S
C1696      H1698   1.082       .  S
N1699      N1700   1.324       .  A
N1699      C1703   1.358       .  A
N1699     Cu1707   2.126       .  S
N1700      C1701   1.334       .  A
N1700     Cu1706   2.045       .  S
C1701      C1702   1.376       .  A
C1701      H1704   1.081       .  S
C1702      C1703   1.399       .  A
C1702      C3377   1.490       .  S
C1703      H1705   1.081       .  S
Cu1706     N1709   2.043       .  S
Cu1707     N1717   2.126       .  S
Cu1708     N1710   2.037       .  S
Cu1708     N1716   2.038       .  S
N1709      N1710   1.315       .  A
N1709      C1713   1.341       .  A
N1710      C1711   1.340       .  A
C1711      C1712   1.378       .  A
C1711      H1714   1.081       .  S
C1712      C1713   1.380       .  A
C1713      H1715   1.081       .  S
N1716      N1717   1.323       .  A
N1716      C1720   1.333       .  A
N1717      C1718   1.358       .  A
C1718      C1719   1.399       .  A
C1718      H1721   1.082       .  S
C1719      C1720   1.375       .  A
C1719      C3037   1.489       .  S
C1720      H1722   1.081       .  S
N1723      N1724   1.323       .  A
N1723      C1727   1.356       .  A
N1723     Cu1731   2.112       .  S
N1724      C1725   1.333       .  A
N1724     Cu1730   2.042       .  S
C1725      C1726   1.375       .  A
C1725      H1728   1.082       .  S
C1726      C1727   1.395       .  A
C1726      C3407   1.483       .  S
C1727      H1729   1.082       .  S
Cu1730     N1733   2.041       .  S
Cu1731     N1741   2.112       .  S
Cu1732     N1734   2.039       .  S
Cu1732     N1740   2.040       .  S
N1733      N1734   1.314       .  A
N1733      C1737   1.340       .  A
N1734      C1735   1.341       .  A
C1735      C1736   1.380       .  A
C1735      H1738   1.082       .  S
C1736      C1737   1.380       .  A
C1737      H1739   1.080       .  S
N1740      N1741   1.324       .  A
N1740      C1744   1.332       .  A
N1741      C1742   1.356       .  A
C1742      C1743   1.393       .  A
C1742      H1745   1.082       .  S
C1743      C1744   1.372       .  A
C1743      C2914   1.477       .  S
C1744      H1746   1.082       .  S
N1747      N1748   1.320       .  A
N1747      C1751   1.358       .  A
N1747     Cu1755   2.121       .  S
N1748      C1749   1.329       .  A
N1748     Cu1754   2.024       .  S
C1749      C1750   1.375       .  A
C1749      H1752   1.080       .  S
C1750      C1751   1.401       .  A
C1750      C3047   1.489       .  S
C1751      H1753   1.082       .  S
Cu1754     N1757   2.023       .  S
Cu1755     N1765   2.123       .  S
Cu1756     N1758   2.046       .  S
Cu1756     N1764   2.049       .  S
N1757      N1758   1.314       .  A
N1757      C1761   1.338       .  A
N1758      C1759   1.342       .  A
C1759      C1760   1.383       .  A
C1759      H1762   1.081       .  S
C1760      C1761   1.376       .  A
C1761      H1763   1.081       .  S
N1764      N1765   1.326       .  A
N1764      C1768   1.333       .  A
N1765      C1766   1.357       .  A
C1766      C1767   1.395       .  A
C1766      H1769   1.082       .  S
C1767      C1768   1.374       .  A
C1767      C3264   1.483       .  S
C1768      H1770   1.082       .  S
N1771      N1772   1.322       .  A
N1771      C1775   1.354       .  A
N1771     Cu1779   2.116       .  S
N1772      C1773   1.339       .  A
N1772     Cu1778   2.064       .  S
C1773      C1774   1.387       .  A
C1773      H1776   1.077       .  S
C1774      C1775   1.400       .  A
C1774      C3217   1.504       .  S
C1775      H1777   1.081       .  S
Cu1778     N1781   2.065       .  S
Cu1779     N1789   2.115       .  S
Cu1780     N1782   2.051       .  S
Cu1780     N1788   2.052       .  S
N1781      N1782   1.319       .  A
N1781      C1785   1.344       .  A
N1782      C1783   1.342       .  A
C1783      C1784   1.379       .  A
C1783      H1786   1.081       .  S
C1784      C1785   1.381       .  A
C1785      H1787   1.082       .  S
N1788      N1789   1.319       .  A
N1788      C1792   1.337       .  A
N1789      C1790   1.355       .  A
C1790      C1791   1.405       .  A
C1790      H1793   1.079       .  S
C1791      C1792   1.388       .  A
C1791      C3257   1.510       .  S
C1792      H1794   1.077       .  S
C1795      C1796   1.418       .  A
C1795      C1800   1.423       .  A
C1795      C2927   1.499       .  S
C1796      C1797   1.420       .  A
C1796      C3007   1.492       .  S
C1797      C1798   1.418       .  A
C1797      C2997   1.489       .  S
C1798      C1799   1.418       .  A
C1798      C2894   1.496       .  S
C1799      C1800   1.421       .  A
C1799      C2904   1.493       .  S
C1800      C2917   1.494       .  S
C1801      C1802   1.419   1_655  A
C1801      C1806   1.418   1_565  A
C1801      C4157   1.495   1_565  S
C1802      C1803   1.420       .  A
C1802      C4137   1.489       .  S
C1803      C1804   1.419       .  A
C1803      C2884   1.497       .  S
C1804      C1805   1.420   1_565  A
C1804      C2874   1.490       .  S
C1805      C1806   1.419   1_455  A
C1805      C2864   1.494       .  S
C1806      C2854   1.491       .  S
C1807      C1808   1.404       .  A
C1807      C1812   1.404       .  A
C1807      C1898   1.468       .  S
C1808      C1809   1.403   1_455  A
C1808      C1850   1.468       .  S
C1809      C1810   1.402       .  A
C1809      C1874   1.467       .  S
C1810      C1811   1.406   1_655  A
C1810      C1826   1.470       .  S
C1811      C1812   1.408       .  A
C1811      C1946   1.469       .  S
C1812      C1922   1.471       .  S
N1813      N1814   1.323       .  A
N1813      C1817   1.353       .  A
N1813     Cu1821   2.114       .  S
N1814      C1815   1.338       .  A
N1814     Cu1820   2.063       .  S
C1815      C1816   1.385       .  A
C1815      H1818   1.078       .  S
C1816      C1817   1.399       .  A
C1816      C4234   1.501       .  S
C1817      H1819   1.081       .  S
Cu1820     N1823   2.064       .  S
Cu1821     N1831   2.110       .  S
Cu1822     N1824   2.036       .  S
Cu1822     N1830   2.038       .  S
N1823      N1824   1.318       .  A
N1823      C1827   1.344       .  A
N1824      C1825   1.340       .  A
C1825      C1826   1.376       .  A
C1825      H1828   1.081       .  S
C1826      C1827   1.383       .  A
C1827      H1829   1.081       .  S
N1830      N1831   1.319       .  A
N1830      C1834   1.333       .  A
N1831      C1832   1.356       .  A
C1832      C1833   1.402       .  A
C1832      H1835   1.081       .  S
C1833      C1834   1.382       .  A
C1833      C2907   1.497       .  S
C1834      H1836   1.079       .  S
N1837      N1838   1.323       .  A
N1837      C1841   1.358       .  A
N1837     Cu1845   2.123       .  S
N1838      C1839   1.332       .  A
N1838     Cu1844   2.038       .  S
C1839      C1840   1.374       .  A
C1839      H1842   1.081       .  S
C1840      C1841   1.398       .  A
C1840      C2867   1.486       .  S
C1841      H1843   1.082       .  S
Cu1844     N1847   2.037       .  S
Cu1845     N1855   2.123   1_455  S
Cu1846     N1848   2.038       .  S
Cu1846     N1854   2.039       .  S
N1847      N1848   1.314   1_455  A
N1847      C1851   1.340       .  A
N1848      C1849   1.341       .  A
C1849      C1850   1.380   1_655  A
C1849      H1852   1.081       .  S
C1850      C1851   1.379       .  A
C1851      H1853   1.082       .  S
N1854      N1855   1.323       .  A
N1854      C1858   1.332       .  A
N1855      C1856   1.358       .  A
C1856      C1857   1.399       .  A
C1856      H1859   1.081   1_655  S
C1857      C1858   1.375       .  A
C1857      C4464   1.489       .  S
C1858      H1860   1.081       .  S
N1861      N1862   1.321       .  A
N1861      C1865   1.356       .  A
N1861     Cu1869   2.119       .  S
N1862      C1863   1.333       .  A
N1862     Cu1868   2.037       .  S
C1863      C1864   1.380       .  A
C1863      H1866   1.079       .  S
C1864      C1865   1.402       .  A
C1864      C2857   1.497       .  S
C1865      H1867   1.081       .  S
Cu1868     N1871   2.036       .  S
Cu1869     N1879   2.120       .  S
Cu1870     N1872   2.049       .  S
Cu1870     N1878   2.051       .  S
N1871      N1872   1.316       .  A
N1871      C1875   1.340       .  A
N1872      C1873   1.342       .  A
C1873      C1874   1.380       .  A
C1873      H1876   1.081       .  S
C1874      C1875   1.377       .  A
C1875      H1877   1.082       .  S
N1878      N1879   1.323       .  A
N1878      C1882   1.335       .  A
N1879      C1880   1.356       .  A
C1880      C1881   1.398       .  A
C1880      H1883   1.081       .  S
C1881      C1882   1.379       .  A
C1881      C2897   1.492       .  S
C1882      H1884   1.081       .  S
N1885      N1886   1.323       .  A
N1885      C1889   1.357       .  A
N1885     Cu1893   2.124       .  S
N1886      C1887   1.333       .  A
N1886     Cu1892   2.044       .  S
C1887      C1888   1.377       .  A
C1887      H1890   1.081       .  S
C1888      C1889   1.399       .  A
C1888      C4454   1.491       .  S
C1889      H1891   1.081       .  S
Cu1892     N1895   2.042       .  S
Cu1893     N1903   2.124       .  S
Cu1894     N1896   2.040       .  S
Cu1894     N1902   2.041       .  S
N1895      N1896   1.315       .  A
N1895      C1899   1.342       .  A
N1896      C1897   1.341       .  A
C1897      C1898   1.379       .  A
C1897      H1900   1.081       .  S
C1898      C1899   1.380       .  A
C1899      H1901   1.081       .  S
N1902      N1903   1.322       .  A
N1902      C1906   1.332       .  A
N1903      C1904   1.358       .  A
C1904      C1905   1.400       .  A
C1904      H1907   1.081       .  S
C1905      C1906   1.377       .  A
C1905      C2844   1.493       .  S
C1906      H1908   1.080       .  S
N1909      N1910   1.324       .  A
N1909      C1913   1.358       .  A
N1909     Cu1917   2.129       .  S
N1910      C1911   1.336       .  A
N1910     Cu1916   2.054       .  S
C1911      C1912   1.378       .  A
C1911      H1914   1.081       .  S
C1912      C1913   1.399       .  A
C1912      C3247   1.493       .  S
C1913      H1915   1.081       .  S
Cu1916     N1919   2.051       .  S
Cu1917     N1927   2.128       .  S
Cu1918     N1920   2.041       .  S
Cu1918     N1926   2.042       .  S
N1919      N1920   1.315       .  A
N1919      C1923   1.343       .  A
N1920      C1921   1.341       .  A
C1921      C1922   1.379       .  A
C1921      H1924   1.081       .  S
C1922      C1923   1.382       .  A
C1923      H1925   1.081       .  S
N1926      N1927   1.322       .  A
N1926      C1930   1.333       .  A
N1927      C1928   1.359       .  A
C1928      C1929   1.401       .  A
C1928      H1931   1.081       .  S
C1929      C1930   1.378       .  A
C1929      C2834   1.494       .  S
C1930      H1932   1.080       .  S
N1933      N1934   1.325       .  A
N1933      C1937   1.357       .  A
N1933     Cu1941   2.118   1_455  S
N1934      C1935   1.333       .  A
N1934     Cu1940   2.043       .  S
C1935      C1936   1.372       .  A
C1935      H1938   1.082       .  S
C1936      C1937   1.393       .  A
C1936      C4244   1.476       .  S
C1937      H1939   1.082       .  S
Cu1940     N1943   2.041       .  S
Cu1941     N1951   2.117       .  S
Cu1942     N1944   2.030   1_655  S
Cu1942     N1950   2.031       .  S
N1943      N1944   1.314       .  A
N1943      C1947   1.342       .  A
N1944      C1945   1.338       .  A
C1945      C1946   1.379       .  A
C1945      H1948   1.080   1_455  S
C1946      C1947   1.382       .  A
C1947      H1949   1.082       .  S
N1950      N1951   1.321       .  A
N1950      C1954   1.331       .  A
N1951      C1952   1.357       .  A
C1952      C1953   1.399       .  A
C1952      H1955   1.082       .  S
C1953      C1954   1.376       .  A
C1953      C3237   1.488       .  S
C1954      H1956   1.080       .  S
C1957      C1958   1.419       .  A
C1957      C1962   1.418       .  A
C1957      C3497   1.490       .  S
C1958      C1959   1.421       .  A
C1958      C3477   1.495       .  S
C1959      C1960   1.422       .  A
C1959      C2837   1.495       .  S
C1960      C1961   1.421       .  A
C1960      C2847   1.493       .  S
C1961      C1962   1.418       .  A
C1961      C2814   1.495       .  S
C1962      C2824   1.492       .  S
C1963      C1964   1.401       .  A
C1963      C1968   1.403   1_545  A
C1963      C2102   1.465       .  S
C1964      C1965   1.404   1_545  A
C1964      C2054   1.469       .  S
C1965      C1966   1.404       .  A
C1965      C2078   1.463       .  S
C1966      C1967   1.402       .  A
C1966      C2030   1.470       .  S
C1967      C1968   1.403       .  A
C1967      C1982   1.465       .  S
C1968      C2006   1.466       .  S
N1969      N1970   1.324       .  A
N1969      C1973   1.358       .  A
N1969     Cu1977   2.127       .  S
N1970      C1971   1.331       .  A
N1970     Cu1976   2.039       .  S
C1971      C1972   1.374       .  A
C1971      H1974   1.081       .  S
C1972      C1973   1.398       .  A
C1972      C4114   1.487       .  S
C1973      H1975   1.082       .  S
Cu1976     N1979   2.038       .  S
Cu1977     N1987   2.125       .  S
Cu1978     N1980   2.028       .  S
Cu1978     N1986   2.028       .  S
N1979      N1980   1.313       .  A
N1979      C1983   1.341       .  A
N1980      C1981   1.339       .  A
C1981      C1982   1.378       .  A
C1981      H1984   1.082       .  S
C1982      C1983   1.380       .  A
C1983      H1985   1.081       .  S
N1986      N1987   1.321       .  A
N1986      C1990   1.330       .  A
N1987      C1988   1.358       .  A
C1988      C1989   1.402       .  A
C1988      H1991   1.081       .  S
C1989      C1990   1.375       .  A
C1989      C2804   1.491       .  S
C1990      H1992   1.080       .  S
N1993      N1994   1.322       .  A
N1993      C1997   1.357       .  A
N1993     Cu2001   2.125   1_545  S
N1994      C1995   1.333       .  A
N1994     Cu2000   2.041       .  S
C1995      C1996   1.379       .  A
C1995      H1998   1.079       .  S
C1996      C1997   1.402       .  A
C1996      C4127   1.497       .  S
C1997      H1999   1.081   1_545  S
Cu2000     N2003   2.039   1_545  S
Cu2001     N2011   2.124       .  S
Cu2002     N2004   2.040       .  S
Cu2002     N2010   2.042       .  S
N2003      N2004   1.315       .  A
N2003      C2007   1.340   1_565  A
N2004      C2005   1.341       .  A
C2005      C2006   1.379       .  A
C2005      H2008   1.081       .  S
C2006      C2007   1.379   1_565  A
C2007      H2009   1.081       .  S
N2010      N2011   1.322       .  A
N2010      C2014   1.333       .  A
N2011      C2012   1.358       .  A
C2012      C2013   1.401       .  A
C2012      H2015   1.081       .  S
C2013      C2014   1.379       .  A
C2013      C2794   1.496       .  S
C2014      H2016   1.080       .  S
N2017      N2018   1.321       .  A
N2017      C2021   1.359       .  A
N2017     Cu2025   2.129       .  S
N2018      C2019   1.333       .  A
N2018     Cu2024   2.040       .  S
C2019      C2020   1.378       .  A
C2019      H2022   1.080       .  S
C2020      C2021   1.402       .  A
C2020      C2887   1.497       .  S
C2021      H2023   1.081       .  S
Cu2024     N2027   2.039       .  S
Cu2025     N2035   2.130       .  S
Cu2026     N2028   2.051       .  S
Cu2026     N2034   2.053       .  S
N2027      N2028   1.316       .  A
N2027      C2031   1.341       .  A
N2028      C2029   1.342       .  A
C2029      C2030   1.381       .  A
C2029      H2032   1.081       .  S
C2030      C2031   1.378       .  A
C2031      H2033   1.081       .  S
N2034      N2035   1.324       .  A
N2034      C2038   1.336       .  A
N2035      C2036   1.358       .  A
C2036      C2037   1.399       .  A
C2036      H2039   1.081       .  S
C2037      C2038   1.378       .  A
C2037      C2787   1.493       .  S
C2038      H2040   1.081       .  S
N2041      N2042   1.322       .  A
N2041      C2045   1.357       .  A
N2041     Cu2049   2.119       .  S
N2042      C2043   1.334       .  A
N2042     Cu2048   2.046       .  S
C2043      C2044   1.379       .  A
C2043      H2046   1.081       .  S
C2044      C2045   1.399       .  A
C2044      C2817   1.493       .  S
C2045      H2047   1.081       .  S
Cu2048     N2051   2.044       .  S
Cu2049     N2059   2.120       .  S
Cu2050     N2052   2.050       .  S
Cu2050     N2058   2.052       .  S
N2051      N2052   1.317       .  A
N2051      C2055   1.342       .  A
N2052      C2053   1.342       .  A
C2053      C2054   1.380       .  A
C2053      H2056   1.081       .  S
C2054      C2055   1.379       .  A
C2055      H2057   1.081       .  S
N2058      N2059   1.323       .  A
N2058      C2062   1.336       .  A
N2059      C2060   1.357       .  A
C2060      C2061   1.397       .  A
C2060      H2063   1.082       .  S
C2061      C2062   1.378       .  A
C2061      C3457   1.491       .  S
C2062      H2064   1.081       .  S
N2065      N2066   1.321       .  A
N2065      C2069   1.359       .  A
N2065     Cu2073   2.124       .  S
N2066      C2067   1.327       .  A
N2066     Cu2072   2.018       .  S
C2067      C2068   1.373       .  A
C2067      H2070   1.080       .  S
C2068      C2069   1.402       .  A
C2068      C3467   1.488       .  S
C2069      H2071   1.081       .  S
Cu2072     N2075   2.018       .  S
Cu2073     N2083   2.126       .  S
Cu2074     N2076   2.035   1_545  S
Cu2074     N2082   2.037   1_545  S
N2075      N2076   1.312       .  A
N2075      C2079   1.338       .  A
N2076      C2077   1.340       .  A
C2077      C2078   1.381       .  A
C2077      H2080   1.081   1_565  S
C2078      C2079   1.377       .  A
C2079      H2081   1.081       .  S
N2082      N2083   1.324       .  A
N2082      C2086   1.330   1_565  A
N2083      C2084   1.358       .  A
C2084      C2085   1.398   1_565  A
C2084      H2087   1.082       .  S
C2085      C2086   1.373       .  A
C2085      C2877   1.486       .  S
C2086      H2088   1.081       .  S
N2089      N2090   1.322       .  A
N2089      C2093   1.358       .  A
N2089     Cu2097   2.129       .  S
N2090      C2091   1.332       .  A
N2090     Cu2096   2.035       .  S
C2091      C2092   1.376       .  A
C2091      H2094   1.080       .  S
C2092      C2093   1.401       .  A
C2092      C2827   1.492       .  S
C2093      H2095   1.082       .  S
Cu2096     N2099   2.034       .  S
Cu2097     N2107   2.129       .  S
Cu2098     N2100   2.036       .  S
Cu2098     N2106   2.038       .  S
N2099      N2100   1.314       .  A
N2099      C2103   1.339       .  A
N2100      C2101   1.341       .  A
C2101      C2102   1.379       .  A
C2101      H2104   1.081       .  S
C2102      C2103   1.378       .  A
C2103      H2105   1.082       .  S
N2106      N2107   1.323       .  A
N2106      C2110   1.332       .  A
N2107      C2108   1.359       .  A
C2108      C2109   1.400       .  A
C2108      H2111   1.082       .  S
C2109      C2110   1.375       .  A
C2109      C2774   1.490       .  S
C2110      H2112   1.081       .  S
C2113      C2114   1.420       .  A
C2113      C2118   1.421   1_545  A
C2113      C2777   1.494       .  S
C2114      C2115   1.419   1_545  A
C2114      C3857   1.494       .  S
C2115      C2116   1.418       .  A
C2115      C3817   1.492       .  S
C2116      C2117   1.419       .  A
C2116      C2754   1.491       .  S
C2117      C2118   1.421       .  A
C2117      C2764   1.495       .  S
C2118      C2797   1.494       .  S
C2119      C2120   1.405       .  A
C2119      C2124   1.404       .  A
C2119      C2234   1.466       .  S
C2120      C2121   1.403       .  A
C2120      C2138   1.467       .  S
C2121      C2122   1.404       .  A
C2121      C2210   1.471       .  S
C2122      C2123   1.405       .  A
C2122      C2258   1.465       .  S
C2123      C2124   1.402       .  A
C2123      C2186   1.469       .  S
C2124      C2162   1.468       .  S
N2125      N2126   1.324       .  A
N2125      C2129   1.358       .  A
N2125     Cu2133   2.121       .  S
N2126      C2127   1.334       .  A
N2126     Cu2132   2.044       .  S
C2127      C2128   1.374       .  A
C2127      H2130   1.082       .  S
C2128      C2129   1.396       .  A
C2128      C2744   1.483       .  S
C2129      H2131   1.082       .  S
Cu2132     N2135   2.042       .  S
Cu2133     N2143   2.121       .  S
Cu2134     N2136   2.041       .  S
Cu2134     N2142   2.042       .  S
N2135      N2136   1.315       .  A
N2135      C2139   1.342       .  A
N2136      C2137   1.341       .  A
C2137      C2138   1.379       .  A
C2137      H2140   1.081       .  S
C2138      C2139   1.379       .  A
C2139      H2141   1.082       .  S
N2142      N2143   1.322       .  A
N2142      C2146   1.333       .  A
N2143      C2144   1.357       .  A
C2144      C2145   1.400       .  A
C2144      H2147   1.081       .  S
C2145      C2146   1.378       .  A
C2145      C3357   1.492       .  S
C2146      H2148   1.080       .  S
N2149      N2150   1.321       .  A
N2149      C2153   1.357       .  A
N2149     Cu2157   2.124       .  S
N2150      C2151   1.334       .  A
N2150     Cu2156   2.043       .  S
C2151      C2152   1.380       .  A
C2151      H2154   1.079       .  S
C2152      C2153   1.402       .  A
C2152      C3347   1.498       .  S
C2153      H2155   1.081       .  S
Cu2156     N2159   2.041       .  S
Cu2157     N2167   2.125       .  S
Cu2158     N2160   2.046       .  S
Cu2158     N2166   2.047       .  S
N2159      N2160   1.316       .  A
N2159      C2163   1.341       .  A
N2160      C2161   1.342       .  A
C2161      C2162   1.380       .  A
C2161      H2164   1.081       .  S
C2162      C2163   1.378       .  A
C2163      H2165   1.081       .  S
N2166      N2167   1.324       .  A
N2166      C2170   1.334       .  A
N2167      C2168   1.358       .  A
C2168      C2169   1.399       .  A
C2168      H2171   1.081       .  S
C2169      C2170   1.377       .  A
C2169      C2734   1.491       .  S
C2170      H2172   1.081       .  S
N2173      N2174   1.323       .  A
N2173      C2177   1.357       .  A
N2173     Cu2181   2.120       .  S
N2174      C2175   1.335       .  A
N2174     Cu2180   2.049       .  S
C2175      C2176   1.378       .  A
C2175      H2178   1.081       .  S
C2176      C2177   1.397       .  A
C2176      C3337   1.490       .  S
C2177      H2179   1.081       .  S
Cu2180     N2183   2.048       .  S
Cu2181     N2191   2.120       .  S
Cu2182     N2184   2.044       .  S
Cu2182     N2190   2.046       .  S
N2183      N2184   1.316       .  A
N2183      C2187   1.342       .  A
N2184      C2185   1.342       .  A
C2185      C2186   1.379       .  A
C2185      H2188   1.082       .  S
C2186      C2187   1.380       .  A
C2187      H2189   1.081       .  S
N2190      N2191   1.322       .  A
N2190      C2194   1.334       .  A
N2191      C2192   1.357       .  A
C2192      C2193   1.399       .  A
C2192      H2195   1.081       .  S
C2193      C2194   1.379       .  A
C2193      C2767   1.493       .  S
C2194      H2196   1.081       .  S
N2197      N2198   1.319       .  A
N2197      C2201   1.356       .  A
N2197     Cu2205   2.108       .  S
N2198      C2199   1.334       .  A
N2198     Cu2204   2.040       .  S
C2199      C2200   1.382       .  A
C2199      H2202   1.079       .  S
C2200      C2201   1.401       .  A
C2200      C3277   1.497       .  S
C2201      H2203   1.081       .  S
Cu2204     N2207   2.038       .  S
Cu2205     N2215   2.111       .  S
Cu2206     N2208   2.066       .  S
Cu2206     N2214   2.065       .  S
N2207      N2208   1.318       .  A
N2207      C2211   1.340       .  A
N2208      C2209   1.344       .  A
C2209      C2210   1.383       .  A
C2209      H2212   1.081       .  S
C2210      C2211   1.376       .  A
C2211      H2213   1.081       .  S
N2214      N2215   1.323       .  A
N2214      C2218   1.338       .  A
N2215      C2216   1.354       .  A
C2216      C2217   1.397       .  A
C2216      H2219   1.081       .  S
C2217      C2218   1.385       .  A
C2217      C2724   1.499       .  S
C2218      H2220   1.078       .  S
N2221      N2222   1.324       .  A
N2221      C2225   1.359       .  A
N2221     Cu2229   2.131       .  S
N2222      C2223   1.333       .  A
N2222     Cu2228   2.042       .  S
C2223      C2224   1.375       .  A
C2223      H2226   1.081       .  S
C2224      C2225   1.399       .  A
C2224      C3367   1.490       .  S
C2225      H2227   1.081       .  S
Cu2228     N2231   2.041       .  S
Cu2229     N2239   2.130       .  S
Cu2230     N2232   2.031       .  S
Cu2230     N2238   2.031       .  S
N2231      N2232   1.314       .  A
N2231      C2235   1.341       .  A
N2232      C2233   1.339       .  A
C2233      C2234   1.378       .  A
C2233      H2236   1.081       .  S
C2234      C2235   1.381       .  A
C2235      H2237   1.081       .  S
N2238      N2239   1.321       .  A
N2238      C2242   1.330       .  A
N2239      C2240   1.359       .  A
C2240      C2241   1.404       .  A
C2240      H2243   1.081       .  S
C2241      C2242   1.377       .  A
C2241      C2714   1.496       .  S
C2242      H2244   1.079       .  S
N2245      N2246   1.324       .  A
N2245      C2249   1.359       .  A
N2245     Cu2253   2.133       .  S
N2246      C2247   1.333       .  A
N2246     Cu2252   2.041       .  S
C2247      C2248   1.374       .  A
C2247      H2250   1.081       .  S
C2248      C2249   1.399       .  A
C2248      C3287   1.489       .  S
C2249      H2251   1.082       .  S
Cu2252     N2255   2.039       .  S
Cu2253     N2263   2.132       .  S
Cu2254     N2256   2.024       .  S
Cu2254     N2262   2.025       .  S
N2255      N2256   1.313       .  A
N2255      C2259   1.340       .  A
N2256      C2257   1.339       .  A
C2257      C2258   1.377       .  A
C2257      H2260   1.081       .  S
C2258      C2259   1.381       .  A
C2259      H2261   1.081       .  S
N2262      N2263   1.322       .  A
N2262      C2266   1.330       .  A
N2263      C2264   1.359       .  A
C2264      C2265   1.402       .  A
C2264      H2267   1.082       .  S
C2265      C2266   1.373       .  A
C2265      C2757   1.489       .  S
C2266      H2268   1.081       .  S
C2269      C2270   1.421       .  A
C2269      C2274   1.420       .  A
C2269      C2784   1.500       .  S
C2270      C2271   1.420       .  A
C2270      C2807   1.489       .  S
C2271      C2272   1.420       .  A
C2271      C2737   1.497       .  S
C2272      C2273   1.420       .  A
C2272      C2717   1.492       .  S
C2273      C2274   1.421       .  A
C2273      C2704   1.497       .  S
C2274      C2697   1.491       .  S
C2275      C2276   1.405       .  A
C2275      C2280   1.404       .  A
C2275      C2342   1.471       .  S
C2276      C2277   1.406   1_554  A
C2276      C2294   1.466       .  S
C2277      C2278   1.402       .  A
C2277      C2366   1.467       .  S
C2278      C2279   1.404   1_556  A
C2278      C2318   1.474       .  S
C2279      C2280   1.405       .  A
C2279      C2414   1.463       .  S
C2280      C2390   1.471       .  S
N2281      N2282   1.325   1_554  A
N2281      C2285   1.357       .  A
N2281     Cu2289   2.122       .  S
N2282      C2283   1.333       .  A
N2282     Cu2288   2.043       .  S
C2283      C2284   1.373       .  A
C2283      H2286   1.081       .  S
C2284      C2285   1.395   1_556  A
C2284      C3434   1.482       .  S
C2285      H2287   1.082       .  S
Cu2288     N2291   2.042   1_556  S
Cu2289     N2299   2.121       .  S
Cu2290     N2292   2.035       .  S
Cu2290     N2298   2.036       .  S
N2291      N2292   1.315       .  A
N2291      C2295   1.342       .  A
N2292      C2293   1.339       .  A
C2293      C2294   1.378       .  A
C2293      H2296   1.081       .  S
C2294      C2295   1.380       .  A
C2295      H2297   1.081   1_554  S
N2298      N2299   1.322       .  A
N2298      C2302   1.332       .  A
N2299      C2300   1.358       .  A
C2300      C2301   1.400       .  A
C2300      H2303   1.081       .  S
C2301      C2302   1.376       .  A
C2301      C2687   1.490       .  S
C2302      H2304   1.081       .  S
N2305      N2306   1.324       .  A
N2305      C2309   1.356       .  A
N2305     Cu2313   2.118       .  S
N2306      C2307   1.336       .  A
N2306     Cu2312   2.052       .  S
C2307      C2308   1.377       .  A
C2307      H2310   1.082       .  S
C2308      C2309   1.396       .  A
C2308      C2707   1.488       .  S
C2309      H2311   1.081       .  S
Cu2312     N2315   2.051       .  S
Cu2313     N2323   2.118       .  S
Cu2314     N2316   2.051       .  S
Cu2314     N2322   2.052       .  S
N2315      N2316   1.317       .  A
N2315      C2319   1.342       .  A
N2316      C2317   1.343       .  A
C2317      C2318   1.381       .  A
C2317      H2320   1.081       .  S
C2318      C2319   1.380       .  A
C2319      H2321   1.081       .  S
N2322      N2323   1.323       .  A
N2322      C2326   1.335       .  A
N2323      C2324   1.357       .  A
C2324      C2325   1.396       .  A
C2324      H2327   1.081       .  S
C2325      C2326   1.378       .  A
C2325      C3914   1.488       .  S
C2326      H2328   1.082       .  S
N2329      N2330   1.321       .  A
N2329      C2333   1.355       .  A
N2329     Cu2337   2.105       .  S
N2330      C2331   1.335       .  A
N2330     Cu2336   2.047       .  S
C2331      C2332   1.379       .  A
C2331      H2334   1.081       .  S
C2332      C2333   1.395       .  A
C2332      C2677   1.487       .  S
C2333      H2335   1.081       .  S
Cu2336     N2339   2.046       .  S
Cu2337     N2347   2.106       .  S
Cu2338     N2340   2.063       .  S
Cu2338     N2346   2.061       .  S
N2339      N2340   1.319       .  A
N2339      C2343   1.341       .  A
N2340      C2341   1.344       .  A
C2341      C2342   1.381       .  A
C2341      H2344   1.081       .  S
C2342      C2343   1.377       .  A
C2343      H2345   1.081       .  S
N2346      N2347   1.321       .  A
N2346      C2350   1.338       .  A
N2347      C2348   1.353       .  A
C2348      C2349   1.398       .  A
C2348      H2351   1.081       .  S
C2349      C2350   1.386       .  A
C2349      C3447   1.501       .  S
C2350      H2352   1.077       .  S
N2353      N2354   1.321       .  A
N2353      C2357   1.358       .  A
N2353     Cu2361   2.124       .  S
N2354      C2355   1.331       .  A
N2354     Cu2360   2.036       .  S
C2355      C2356   1.378       .  A
C2355      H2358   1.079       .  S
C2356      C2357   1.402       .  A
C2356      C2694   1.495       .  S
C2357      H2359   1.081       .  S
Cu2360     N2363   2.035       .  S
Cu2361     N2371   2.125       .  S
Cu2362     N2364   2.040       .  S
Cu2362     N2370   2.041       .  S
N2363      N2364   1.314       .  A
N2363      C2367   1.340       .  A
N2364      C2365   1.341       .  A
C2365      C2366   1.380       .  A
C2365      H2368   1.081       .  S
C2366      C2367   1.379       .  A
C2367      H2369   1.081       .  S
N2370      N2371   1.323       .  A
N2370      C2374   1.332       .  A
N2371      C2372   1.358       .  A
C2372      C2373   1.399       .  A
C2372      H2375   1.081       .  S
C2373      C2374   1.376       .  A
C2373      C2667   1.490       .  S
C2374      H2376   1.081       .  S
N2377      N2378   1.321       .  A
N2377      C2381   1.356       .  A
N2377     Cu2385   2.125       .  S
N2378      C2379   1.338       .  A
N2378     Cu2384   2.060       .  S
C2379      C2380   1.388       .  A
C2379      H2382   1.076       .  S
C2380      C2381   1.404       .  A
C2380      C2647   1.510       .  S
C2381      H2383   1.080       .  S
Cu2384     N2387   2.062       .  S
Cu2385     N2395   2.124       .  S
Cu2386     N2388   2.046       .  S
Cu2386     N2394   2.047       .  S
N2387      N2388   1.319       .  A
N2387      C2391   1.343       .  A
N2388      C2389   1.342       .  A
C2389      C2390   1.378       .  A
C2389      H2392   1.081       .  S
C2390      C2391   1.381       .  A
C2391      H2393   1.081       .  S
N2394      N2395   1.321       .  A
N2394      C2398   1.338       .  A
N2395      C2396   1.357       .  A
C2396      C2397   1.400       .  A
C2396      H2399   1.081       .  S
C2397      C2398   1.380       .  A
C2397      C2657   1.494       .  S
C2398      H2400   1.081       .  S
N2401      N2402   1.322       .  A
N2401      C2405   1.359       .  A
N2401     Cu2409   2.130       .  S
N2402      C2403   1.328   1_554  A
N2402     Cu2408   2.025       .  S
C2403      C2404   1.374       .  A
C2403      H2406   1.080       .  S
C2404      C2405   1.403   1_556  A
C2404      C2634   1.492       .  S
C2405      H2407   1.081       .  S
Cu2408     N2411   2.024       .  S
Cu2409     N2419   2.131       .  S
Cu2410     N2412   2.027       .  S
Cu2410     N2418   2.029       .  S
N2411      N2412   1.312       .  A
N2411      C2415   1.339       .  A
N2412      C2413   1.338       .  A
C2413      C2414   1.379       .  A
C2413      H2416   1.081       .  S
C2414      C2415   1.379       .  A
C2415      H2417   1.081   1_554  S
N2418      N2419   1.322       .  A
N2418      C2422   1.329       .  A
N2419      C2420   1.359       .  A
C2420      C2421   1.403       .  A
C2420      H2423   1.081       .  S
C2421      C2422   1.375       .  A
C2421      C3927   1.493       .  S
C2422      H2424   1.079       .  S
C2425      C2426   1.425   1_554  A
C2425      C2430   1.420       .  A
C2425      C3837   1.498       .  S
C2426      C2427   1.422       .  A
C2426      C3797   1.497       .  S
C2427      C2428   1.422       .  A
C2427      C2727   1.500       .  S
C2428      C2429   1.421       .  A
C2428      C2747   1.500       .  S
C2429      C2430   1.421   1_556  A
C2429      C2637   1.489       .  S
C2430      C2654   1.501       .  S
C2431      C2432   1.420       .  A
C2431      C2436   1.421   1_556  A
C2431      C2664   1.493       .  S
C2432      C2433   1.418   1_456  A
C2432      C4014   1.494       .  S
C2433      C2434   1.417       .  A
C2433      C3997   1.491       .  S
C2434      C2435   1.418   1_655  A
C2434      C2617   1.490       .  S
C2435      C2436   1.419       .  A
C2435      C2627   1.494       .  S
C2436      C2684   1.492       .  S
C2437      C2438   1.403       .  A
C2437      C2442   1.401       .  A
C2437      C2528   1.464       .  S
C2438      C2439   1.403       .  A
C2438      C2576   1.466       .  S
C2439      C2440   1.403   1_455  A
C2439      C2456   1.467       .  S
C2440      C2441   1.402       .  A
C2440      C2504   1.465       .  S
C2441      C2442   1.401   1_655  A
C2441      C2552   1.465       .  S
C2442      C2480   1.466       .  S
N2443      N2444   1.322       .  A
N2443      C2447   1.357       .  A
N2443     Cu2451   2.118   1_655  S
N2444      C2445   1.331       .  A
N2444     Cu2450   2.034       .  S
C2445      C2446   1.375       .  A
C2445      H2448   1.081       .  S
C2446      C2447   1.399       .  A
C2446      C3187   1.488       .  S
C2447      H2449   1.081       .  S
Cu2450     N2453   2.033   1_655  S
Cu2451     N2461   2.119       .  S
Cu2452     N2454   2.043       .  S
Cu2452     N2460   2.045       .  S
N2453      N2454   1.314       .  A
N2453      C2457   1.340       .  A
N2454      C2455   1.341       .  A
C2455      C2456   1.381       .  A
C2455      H2458   1.081       .  S
C2456      C2457   1.378       .  A
C2457      H2459   1.081   1_455  S
N2460      N2461   1.324       .  A
N2460      C2464   1.333       .  A
N2461      C2462   1.357       .  A
C2462      C2463   1.395       .  A
C2462      H2465   1.082       .  S
C2463      C2464   1.374       .  A
C2463      C3957   1.483       .  S
C2464      H2466   1.082       .  S
N2467      N2468   1.323       .  A
N2467      C2471   1.357       .  A
N2467     Cu2475   2.122   1_655  S
N2468      C2469   1.333       .  A
N2468     Cu2474   2.041       .  S
C2469      C2470   1.377       .  A
C2469      H2472   1.081       .  S
C2470      C2471   1.399       .  A
C2470      C4427   1.491       .  S
C2471      H2473   1.081   1_655  S
Cu2474     N2477   2.040   1_655  S
Cu2475     N2485   2.122       .  S
Cu2476     N2478   2.040       .  S
Cu2476     N2484   2.041       .  S
N2477      N2478   1.315       .  A
N2477      C2481   1.341   1_455  A
N2478      C2479   1.341       .  A
C2479      C2480   1.379       .  A
C2479      H2482   1.081       .  S
C2480      C2481   1.378   1_455  A
C2481      H2483   1.081       .  S
N2484      N2485   1.323       .  A
N2484      C2488   1.333       .  A
N2485      C2486   1.358       .  A
C2486      C2487   1.398       .  A
C2486      H2489   1.082       .  S
C2487      C2488   1.376       .  A
C2487      C2624   1.489       .  S
C2488      H2490   1.081       .  S
N2491      N2492   1.322       .  A
N2491      C2495   1.358       .  A
N2491     Cu2499   2.126       .  S
N2492      C2493   1.332       .  A
N2492     Cu2498   2.039       .  S
C2493      C2494   1.377       .  A
C2493      H2496   1.080       .  S
C2494      C2495   1.401       .  A
C2494      C3097   1.493       .  S
C2495      H2497   1.081       .  S
Cu2498     N2501   2.037       .  S
Cu2499     N2509   2.126       .  S
Cu2500     N2502   2.036       .  S
Cu2500     N2508   2.037       .  S
N2501      N2502   1.314       .  A
N2501      C2505   1.340       .  A
N2502      C2503   1.340       .  A
C2503      C2504   1.378       .  A
C2503      H2506   1.081       .  S
C2504      C2505   1.379       .  A
C2505      H2507   1.081       .  S
N2508      N2509   1.321       .  A
N2508      C2512   1.332       .  A
N2509      C2510   1.357       .  A
C2510      C2511   1.403       .  A
C2510      H2513   1.081       .  S
C2511      C2512   1.379       .  A
C2511      C3964   1.499       .  S
C2512      H2514   1.078       .  S
N2515      N2516   1.321       .  A
N2515      C2519   1.359       .  A
N2515     Cu2523   2.127       .  S
N2516      C2517   1.330       .  A
N2516     Cu2522   2.035       .  S
C2517      C2518   1.377       .  A
C2517      H2520   1.080       .  S
C2518      C2519   1.403       .  A
C2518      C2604   1.496       .  S
C2519      H2521   1.081       .  S
Cu2522     N2525   2.034       .  S
Cu2523     N2533   2.127       .  S
Cu2524     N2526   2.038       .  S
Cu2524     N2532   2.040       .  S
N2525      N2526   1.314       .  A
N2525      C2529   1.340       .  A
N2526      C2527   1.341       .  A
C2527      C2528   1.379       .  A
C2527      H2530   1.082       .  S
C2528      C2529   1.378       .  A
C2529      H2531   1.081       .  S
N2532      N2533   1.323       .  A
N2532      C2536   1.332       .  A
N2533      C2534   1.358       .  A
C2534      C2535   1.401       .  A
C2534      H2537   1.081       .  S
C2535      C2536   1.376       .  A
C2535      C4417   1.493       .  S
C2536      H2538   1.080       .  S
N2539      N2540   1.322       .  A
N2539      C2543   1.357       .  A
N2539     Cu2547   2.121       .  S
N2540      C2541   1.333       .  A
N2540     Cu2546   2.042       .  S
C2541      C2542   1.378       .  A
C2541      H2544   1.080       .  S
C2542      C2543   1.400       .  A
C2542      C3107   1.492       .  S
C2543      H2545   1.081       .  S
Cu2546     N2549   2.040       .  S
Cu2547     N2557   2.121       .  S
Cu2548     N2550   2.038       .  S
Cu2548     N2556   2.039       .  S
N2549      N2550   1.315       .  A
N2549      C2553   1.341       .  A
N2550      C2551   1.340       .  A
C2551      C2552   1.378       .  A
C2551      H2554   1.081       .  S
C2552      C2553   1.379       .  A
C2553      H2555   1.081       .  S
N2556      N2557   1.322       .  A
N2556      C2560   1.333       .  A
N2557      C2558   1.356       .  A
C2558      C2559   1.401       .  A
C2558      H2561   1.081       .  S
C2559      C2560   1.379       .  A
C2559      C2614   1.495       .  S
C2560      H2562   1.079       .  S
N2563      N2564   1.323       .  A
N2563      C2567   1.360       .  A
N2563     Cu2571   2.133       .  S
N2564      C2565   1.333       .  A
N2564     Cu2570   2.040       .  S
C2565      C2566   1.376       .  A
C2565      H2568   1.081       .  S
C2566      C2567   1.401       .  A
C2566      C2594   1.492       .  S
C2567      H2569   1.081       .  S
Cu2570     N2573   2.039       .  S
Cu2571     N2581   2.133       .  S
Cu2572     N2574   2.040       .  S
Cu2572     N2580   2.041       .  S
N2573      N2574   1.315       .  A
N2573      C2577   1.341       .  A
N2574      C2575   1.341       .  A
C2575      C2576   1.379       .  A
C2575      H2578   1.081       .  S
C2576      C2577   1.379       .  A
C2577      H2579   1.081       .  S
N2580      N2581   1.323       .  A
N2580      C2584   1.333       .  A
N2581      C2582   1.359       .  A
C2582      C2583   1.401       .  A
C2582      H2585   1.081       .  S
C2583      C2584   1.376       .  A
C2583      C3177   1.493       .  S
C2584      H2586   1.080       .  S
C2587      C2588   1.421       .  A
C2587      C2592   1.419       .  A
C2587      C3617   1.494       .  S
C2588      C2589   1.421       .  A
C2588      C3637   1.491       .  S
C2589      C2590   1.424       .  A
C2589      C2644   1.502       .  S
C2590      C2591   1.423       .  A
C2590      C2674   1.498       .  S
C2591      C2592   1.420       .  A
C2591      C2607   1.493       .  S
C2592      C2597   1.498       .  S
C2593      C2594   1.409       .  A
C2593      C2598   1.410       .  A
C2593      F2600   1.357       .  S
C2594      C2595   1.411       .  A
C2595      C2596   1.393       .  A
C2595      F2602   1.358       .  S
C2596      C2597   1.402       .  A
C2596      F2601   1.355       .  S
C2597      C2598   1.408       .  A
C2598      F2599   1.357       .  S
C2603      C2604   1.411       .  A
C2603      C2608   1.410       .  A
C2603      F2610   1.356       .  S
C2604      C2605   1.414       .  A
C2605      C2606   1.390       .  A
C2605      F2612   1.357       .  S
C2606      C2607   1.399       .  A
C2606      F2611   1.356       .  S
C2607      C2608   1.406       .  A
C2608      F2609   1.357       .  S
C2613      C2614   1.412       .  A
C2613      C2618   1.407       .  A
C2613      F2620   1.356       .  S
C2614      C2615   1.414       .  A
C2615      C2616   1.392       .  A
C2615      F2622   1.357       .  S
C2616      C2617   1.399       .  A
C2616      F2621   1.356   1_655  S
C2617      C2618   1.404       .  A
C2618      F2619   1.357       .  S
C2623      C2624   1.409       .  A
C2623      C2628   1.409       .  A
C2623      F2630   1.357   1_455  S
C2624      C2625   1.410       .  A
C2625      C2626   1.391       .  A
C2625      F2632   1.358       .  S
C2626      C2627   1.401       .  A
C2626      F2631   1.354       .  S
C2627      C2628   1.407       .  A
C2628      F2629   1.357   1_455  S
C2633      C2634   1.410   1_554  A
C2633      C2638   1.408       .  A
C2633      F2640   1.356       .  S
C2634      C2635   1.414       .  A
C2635      C2636   1.388       .  A
C2635      F2642   1.357       .  S
C2636      C2637   1.398       .  A
C2636      F2641   1.359       .  S
C2637      C2638   1.406   1_556  A
C2638      F2639   1.357       .  S
C2643      C2644   1.401       .  A
C2643      C2648   1.396       .  A
C2643      F2650   1.356       .  S
C2644      C2645   1.406       .  A
C2645      C2646   1.410       .  A
C2645      F2652   1.357       .  S
C2646      C2647   1.415       .  A
C2646      F2651   1.356       .  S
C2647      C2648   1.418       .  A
C2648      F2649   1.354       .  S
C2653      C2654   1.404       .  A
C2653      C2658   1.398       .  A
C2653      F2660   1.357       .  S
C2654      C2655   1.408       .  A
C2655      C2656   1.408       .  A
C2655      F2662   1.357       .  S
C2656      C2657   1.409       .  A
C2656      F2661   1.357       .  S
C2657      C2658   1.412       .  A
C2658      F2659   1.358       .  S
C2663      C2664   1.401       .  A
C2663      C2668   1.390       .  A
C2663      F2670   1.354   1_556  S
C2664      C2665   1.406       .  A
C2665      C2666   1.409       .  A
C2665      F2672   1.357       .  S
C2666      C2667   1.410       .  A
C2666      F2671   1.356       .  S
C2667      C2668   1.411       .  A
C2668      F2669   1.358       .  S
C2673      C2674   1.408       .  A
C2673      C2678   1.408       .  A
C2673      F2680   1.357       .  S
C2674      C2675   1.405       .  A
C2675      C2676   1.391       .  A
C2675      F2682   1.353       .  S
C2676      C2677   1.407       .  A
C2676      F2681   1.358       .  S
C2677      C2678   1.409       .  A
C2678      F2679   1.357       .  S
C2683      C2684   1.406       .  A
C2683      C2688   1.409       .  A
C2683      F2690   1.357   1_554  S
C2684      C2685   1.401       .  A
C2685      C2686   1.390       .  A
C2685      F2692   1.355       .  S
C2686      C2687   1.411       .  A
C2686      F2691   1.358       .  S
C2687      C2688   1.409       .  A
C2688      F2689   1.356   1_554  S
C2693      C2694   1.411       .  A
C2693      C2698   1.408       .  A
C2693      F2700   1.356       .  S
C2694      C2695   1.414       .  A
C2695      C2696   1.390       .  A
C2695      F2702   1.357       .  S
C2696      C2697   1.399       .  A
C2696      F2701   1.357       .  S
C2697      C2698   1.405       .  A
C2698      F2699   1.357       .  S
C2703      C2704   1.407       .  A
C2703      C2708   1.408       .  A
C2703      F2710   1.357       .  S
C2704      C2705   1.404       .  A
C2705      C2706   1.393       .  A
C2705      F2712   1.354       .  S
C2706      C2707   1.408       .  A
C2706      F2711   1.358       .  S
C2707      C2708   1.409       .  A
C2708      F2709   1.357       .  S
C2713      C2714   1.411       .  A
C2713      C2718   1.409       .  A
C2713      F2720   1.356       .  S
C2714      C2715   1.415       .  A
C2715      C2716   1.390       .  A
C2715      F2722   1.357       .  S
C2716      C2717   1.399       .  A
C2716      F2721   1.357       .  S
C2717      C2718   1.406       .  A
C2718      F2719   1.357       .  S
C2723      C2724   1.414       .  A
C2723      C2728   1.393       .  A
C2723      F2730   1.356       .  S
C2724      C2725   1.413       .  A
C2725      C2726   1.408       .  A
C2725      F2732   1.356       .  S
C2726      C2727   1.406       .  A
C2726      F2731   1.357       .  S
C2727      C2728   1.403       .  A
C2728      F2729   1.356       .  S
C2733      C2734   1.410       .  A
C2733      C2738   1.393       .  A
C2733      F2740   1.358       .  S
C2734      C2735   1.409       .  A
C2735      C2736   1.409       .  A
C2735      F2742   1.357       .  S
C2736      C2737   1.407       .  A
C2736      F2741   1.357       .  S
C2737      C2738   1.403       .  A
C2738      F2739   1.355       .  S
C2743      C2744   1.407       .  A
C2743      C2748   1.408       .  A
C2743      F2750   1.357       .  S
C2744      C2745   1.406       .  A
C2745      C2746   1.391       .  A
C2745      F2752   1.359       .  S
C2746      C2747   1.406       .  A
C2746      F2751   1.354       .  S
C2747      C2748   1.409       .  A
C2748      F2749   1.357       .  S
C2753      C2754   1.406       .  A
C2753      C2758   1.408       .  A
C2753      F2760   1.357       .  S
C2754      C2755   1.400       .  A
C2755      C2756   1.391       .  A
C2755      F2762   1.356       .  S
C2756      C2757   1.412       .  A
C2756      F2761   1.358       .  S
C2757      C2758   1.408       .  A
C2758      F2759   1.356       .  S
C2763      C2764   1.407       .  A
C2763      C2768   1.409       .  A
C2763      F2770   1.357       .  S
C2764      C2765   1.402       .  A
C2765      C2766   1.392       .  A
C2765      F2772   1.354       .  S
C2766      C2767   1.411       .  A
C2766      F2771   1.358       .  S
C2767      C2768   1.410       .  A
C2768      F2769   1.356       .  S
C2773      C2774   1.411       .  A
C2773      C2778   1.391       .  A
C2773      F2780   1.358       .  S
C2774      C2775   1.409       .  A
C2775      C2776   1.409       .  A
C2775      F2782   1.356       .  S
C2776      C2777   1.407       .  A
C2776      F2781   1.357       .  S
C2777      C2778   1.401       .  A
C2778      F2779   1.354   1_545  S
C2783      C2784   1.404       .  A
C2783      C2788   1.394       .  A
C2783      F2790   1.354       .  S
C2784      C2785   1.408       .  A
C2785      C2786   1.410       .  A
C2785      F2792   1.357       .  S
C2786      C2787   1.410       .  A
C2786      F2791   1.357       .  S
C2787      C2788   1.410       .  A
C2788      F2789   1.358       .  S
C2793      C2794   1.413       .  A
C2793      C2798   1.391       .  A
C2793      F2800   1.357       .  S
C2794      C2795   1.411       .  A
C2795      C2796   1.409       .  A
C2795      F2802   1.356   1_565  S
C2796      C2797   1.406       .  A
C2796      F2801   1.357   1_565  S
C2797      C2798   1.400       .  A
C2798      F2799   1.355       .  S
C2803      C2804   1.413       .  A
C2803      C2808   1.390       .  A
C2803      F2810   1.358       .  S
C2804      C2805   1.410       .  A
C2805      C2806   1.408       .  A
C2805      F2812   1.356       .  S
C2806      C2807   1.406       .  A
C2806      F2811   1.357       .  S
C2807      C2808   1.399       .  A
C2808      F2809   1.357       .  S
C2813      C2814   1.406       .  A
C2813      C2818   1.409       .  A
C2813      F2820   1.357       .  S
C2814      C2815   1.401       .  A
C2815      C2816   1.392       .  A
C2815      F2822   1.354       .  S
C2816      C2817   1.411       .  A
C2816      F2821   1.358       .  S
C2817      C2818   1.411       .  A
C2818      F2819   1.356       .  S
C2823      C2824   1.401       .  A
C2823      C2828   1.392       .  A
C2823      F2830   1.356       .  S
C2824      C2825   1.406       .  A
C2825      C2826   1.408       .  A
C2825      F2832   1.357       .  S
C2826      C2827   1.410       .  A
C2826      F2831   1.356       .  S
C2827      C2828   1.413       .  A
C2828      F2829   1.358       .  S
C2833      C2834   1.410       .  A
C2833      C2838   1.410       .  A
C2833      F2840   1.356       .  S
C2834      C2835   1.412       .  A
C2835      C2836   1.392       .  A
C2835      F2842   1.358       .  S
C2836      C2837   1.401       .  A
C2836      F2841   1.355       .  S
C2837      C2838   1.407       .  A
C2838      F2839   1.357       .  S
C2843      C2844   1.412       .  A
C2843      C2848   1.391       .  A
C2843      F2850   1.358       .  S
C2844      C2845   1.410       .  A
C2845      C2846   1.409       .  A
C2845      F2852   1.356       .  S
C2846      C2847   1.406       .  A
C2846      F2851   1.357       .  S
C2847      C2848   1.401       .  A
C2848      F2849   1.355       .  S
C2853      C2854   1.399       .  A
C2853      C2858   1.391       .  A
C2853      F2860   1.356   1_655  S
C2854      C2855   1.404       .  A
C2855      C2856   1.408       .  A
C2855      F2862   1.357       .  S
C2856      C2857   1.413       .  A
C2856      F2861   1.356       .  S
C2857      C2858   1.415       .  A
C2858      F2859   1.357       .  S
C2863      C2864   1.407   1_655  A
C2863      C2868   1.409       .  A
C2863      F2870   1.357       .  S
C2864      C2865   1.402       .  A
C2865      C2866   1.390       .  A
C2865      F2872   1.354       .  S
C2866      C2867   1.409       .  A
C2866      F2871   1.358       .  S
C2867      C2868   1.408   1_455  A
C2868      F2869   1.357       .  S
C2873      C2874   1.406       .  A
C2873      C2878   1.408       .  A
C2873      F2880   1.357       .  S
C2874      C2875   1.401   1_565  A
C2875      C2876   1.389       .  A
C2875      F2882   1.355       .  S
C2876      C2877   1.410       .  A
C2876      F2881   1.358       .  S
C2877      C2878   1.408   1_545  A
C2878      F2879   1.356       .  S
C2883      C2884   1.407       .  A
C2883      C2888   1.411       .  A
C2883      F2890   1.357       .  S
C2884      C2885   1.401       .  A
C2885      C2886   1.392       .  A
C2885      F2892   1.355       .  S
C2886      C2887   1.413       .  A
C2886      F2891   1.357       .  S
C2887      C2888   1.411       .  A
C2888      F2889   1.356       .  S
C2893      C2894   1.403       .  A
C2893      C2898   1.392       .  A
C2893      F2900   1.354       .  S
C2894      C2895   1.406       .  A
C2895      C2896   1.408       .  A
C2895      F2902   1.357       .  S
C2896      C2897   1.410       .  A
C2896      F2901   1.356       .  S
C2897      C2898   1.410       .  A
C2898      F2899   1.358       .  S
C2903      C2904   1.400       .  A
C2903      C2908   1.390       .  A
C2903      F2910   1.357       .  S
C2904      C2905   1.405       .  A
C2905      C2906   1.409       .  A
C2905      F2912   1.357       .  S
C2906      C2907   1.413       .  A
C2906      F2911   1.356       .  S
C2907      C2908   1.413       .  A
C2908      F2909   1.357       .  S
C2913      C2914   1.405       .  A
C2913      C2918   1.389       .  A
C2913      F2920   1.359       .  S
C2914      C2915   1.406       .  A
C2915      C2916   1.407       .  A
C2915      F2922   1.357       .  S
C2916      C2917   1.408       .  A
C2916      F2921   1.357       .  S
C2917      C2918   1.404       .  A
C2918      F2919   1.352       .  S
C2923      C2924   1.417       .  A
C2923      C2928   1.394       .  A
C2923      F2930   1.355       .  S
C2924      C2925   1.415       .  A
C2925      C2926   1.409       .  A
C2925      F2932   1.356       .  S
C2926      C2927   1.405       .  A
C2926      F2931   1.357       .  S
C2927      C2928   1.400       .  A
C2928      F2929   1.356       .  S
C2933      C2934   1.411       .  A
C2933      C2938   1.396       .  A
C2933      F2940   1.358       .  S
C2934      C2935   1.410       .  A
C2935      C2936   1.410       .  A
C2935      F2942   1.357   1_565  S
C2936      C2937   1.408       .  A
C2936      F2941   1.357   1_565  S
C2937      C2938   1.405       .  A
C2938      F2939   1.355       .  S
C2943      C2944   1.411       .  A
C2943      C2948   1.408       .  A
C2943      F2950   1.356       .  S
C2944      C2945   1.414       .  A
C2945      C2946   1.388       .  A
C2945      F2952   1.357       .  S
C2946      C2947   1.399       .  A
C2946      F2951   1.358   1_545  S
C2947      C2948   1.405       .  A
C2948      F2949   1.357       .  S
C2953      C2954   1.410       .  A
C2953      C2958   1.392       .  A
C2953      F2960   1.358       .  S
C2954      C2955   1.410       .  A
C2955      C2956   1.408       .  A
C2955      F2962   1.356       .  S
C2956      C2957   1.406       .  A
C2956      F2961   1.357       .  S
C2957      C2958   1.402       .  A
C2958      F2959   1.355       .  S
C2963      C2964   1.399       .  A
C2963      C2968   1.389       .  A
C2963      F2970   1.357       .  S
C2964      C2965   1.405       .  A
C2965      C2966   1.408       .  A
C2965      F2972   1.357       .  S
C2966      C2967   1.410       .  A
C2966      F2971   1.356       .  S
C2967      C2968   1.413       .  A
C2968      F2969   1.358       .  S
C2973      C2974   1.403       .  A
C2973      C2978   1.393       .  A
C2973      F2980   1.354       .  S
C2974      C2975   1.406       .  A
C2975      C2976   1.407       .  A
C2975      F2982   1.357       .  S
C2976      C2977   1.410       .  A
C2976      F2981   1.356       .  S
C2977      C2978   1.410       .  A
C2978      F2979   1.358       .  S
C2983      C2984   1.410       .  A
C2983      C2988   1.407       .  A
C2983      F2990   1.356       .  S
C2984      C2985   1.414       .  A
C2985      C2986   1.390       .  A
C2985      F2992   1.357       .  S
C2986      C2987   1.399       .  A
C2986      F2991   1.357       .  S
C2987      C2988   1.405       .  A
C2988      F2989   1.357       .  S
C2993      C2994   1.412       .  A
C2993      C2998   1.408       .  A
C2993      F3000   1.356       .  S
C2994      C2995   1.414       .  A
C2995      C2996   1.390       .  A
C2995      F3002   1.357       .  S
C2996      C2997   1.398       .  A
C2996      F3001   1.357       .  S
C2997      C2998   1.404       .  A
C2998      F2999   1.357       .  S
C3003      C3004   1.408       .  A
C3003      C3008   1.406       .  A
C3003      F3010   1.357       .  S
C3004      C3005   1.411       .  A
C3005      C3006   1.394       .  A
C3005      F3012   1.358       .  S
C3006      C3007   1.402       .  A
C3006      F3011   1.357       .  S
C3007      C3008   1.406       .  A
C3008      F3009   1.357       .  S
C3013      C3014   1.406       .  A
C3013      C3018   1.407       .  A
C3013      F3020   1.357       .  S
C3014      C3015   1.403       .  A
C3015      C3016   1.394       .  A
C3015      F3022   1.355       .  S
C3016      C3017   1.410       .  A
C3016      F3021   1.358       .  S
C3017      C3018   1.410       .  A
C3018      F3019   1.357       .  S
C3023      C3024   1.399       .  A
C3023      C3028   1.390       .  A
C3023      F3030   1.357       .  S
C3024      C3025   1.405   1_556  A
C3025      C3026   1.407       .  A
C3025      F3032   1.357       .  S
C3026      C3027   1.411   1_554  A
C3026      F3031   1.356       .  S
C3027      C3028   1.414       .  A
C3028      F3029   1.357       .  S
C3033      C3034   1.407       .  A
C3033      C3038   1.409       .  A
C3033      F3040   1.357       .  S
C3034      C3035   1.403       .  A
C3035      C3036   1.392       .  A
C3035      F3042   1.355       .  S
C3036      C3037   1.410       .  A
C3036      F3041   1.358       .  S
C3037      C3038   1.409       .  A
C3038      F3039   1.357       .  S
C3043      C3044   1.406       .  A
C3043      C3048   1.408       .  A
C3043      F3050   1.357       .  S
C3044      C3045   1.400       .  A
C3045      C3046   1.389       .  A
C3045      F3052   1.357       .  S
C3046      C3047   1.412       .  A
C3046      F3051   1.358       .  S
C3047      C3048   1.409       .  A
C3048      F3049   1.356       .  S
C3053      C3054   1.406       .  A
C3053      C3058   1.409       .  A
C3053      F3060   1.357   1_554  S
C3054      C3055   1.400       .  A
C3055      C3056   1.391       .  A
C3055      F3062   1.356       .  S
C3056      C3057   1.412       .  A
C3056      F3061   1.358       .  S
C3057      C3058   1.410       .  A
C3058      F3059   1.356   1_554  S
C3063      C3064   1.411       .  A
C3063      C3068   1.408       .  A
C3063      F3070   1.356       .  S
C3064      C3065   1.411       .  A
C3065      C3066   1.391       .  A
C3065      F3072   1.358       .  S
C3066      C3067   1.401       .  A
C3066      F3071   1.355   1_556  S
C3067      C3068   1.405       .  A
C3068      F3069   1.357       .  S
C3073      C3074   1.406       .  A
C3073      C3078   1.409       .  A
C3073      F3080   1.357       .  S
C3074      C3075   1.401       .  A
C3075      C3076   1.392       .  A
C3075      F3082   1.355       .  S
C3076      C3077   1.412       .  A
C3076      F3081   1.357       .  S
C3077      C3078   1.411       .  A
C3078      F3079   1.356       .  S
C3083      C3084   1.406   1_565  A
C3083      C3088   1.407       .  A
C3083      F3090   1.357       .  S
C3084      C3085   1.400       .  A
C3085      C3086   1.390       .  A
C3085      F3092   1.356       .  S
C3086      C3087   1.411       .  A
C3086      F3091   1.358       .  S
C3087      C3088   1.409   1_545  A
C3088      F3089   1.356       .  S
C3093      C3094   1.406       .  A
C3093      C3098   1.409       .  A
C3093      F3100   1.357       .  S
C3094      C3095   1.401       .  A
C3095      C3096   1.391       .  A
C3095      F3102   1.355       .  S
C3096      C3097   1.412       .  A
C3096      F3101   1.358       .  S
C3097      C3098   1.410       .  A
C3098      F3099   1.356       .  S
C3103      C3104   1.406       .  A
C3103      C3108   1.409       .  A
C3103      F3110   1.357       .  S
C3104      C3105   1.401       .  A
C3105      C3106   1.391       .  A
C3105      F3112   1.355       .  S
C3106      C3107   1.411       .  A
C3106      F3111   1.358       .  S
C3107      C3108   1.410       .  A
C3108      F3109   1.356       .  S
C3113      C3114   1.406       .  A
C3113      C3118   1.409       .  A
C3113      F3120   1.357       .  S
C3114      C3115   1.401       .  A
C3115      C3116   1.392       .  A
C3115      F3122   1.355       .  S
C3116      C3117   1.413       .  A
C3116      F3121   1.357       .  S
C3117      C3118   1.412       .  A
C3118      F3119   1.356       .  S
C3123      C3124   1.406       .  A
C3123      C3128   1.408       .  A
C3123      F3130   1.357       .  S
C3124      C3125   1.400       .  A
C3125      C3126   1.391       .  A
C3125      F3132   1.356       .  S
C3126      C3127   1.412       .  A
C3126      F3131   1.358       .  S
C3127      C3128   1.409       .  A
C3128      F3129   1.356       .  S
C3133      C3134   1.408       .  A
C3133      C3138   1.407       .  A
C3133      F3140   1.357       .  S
C3134      C3135   1.410       .  A
C3135      C3136   1.397       .  A
C3135      F3142   1.358       .  S
C3136      C3137   1.404       .  A
C3136      F3141   1.357       .  S
C3137      C3138   1.407       .  A
C3138      F3139   1.357       .  S
C3143      C3144   1.414       .  A
C3143      C3148   1.392       .  A
C3143      F3150   1.357       .  S
C3144      C3145   1.411       .  A
C3145      C3146   1.409       .  A
C3145      F3152   1.356       .  S
C3146      C3147   1.405       .  A
C3146      F3151   1.357       .  S
C3147      C3148   1.400       .  A
C3148      F3149   1.356       .  S
C3153      C3154   1.410       .  A
C3153      C3158   1.391       .  A
C3153      F3160   1.358       .  S
C3154      C3155   1.409       .  A
C3155      C3156   1.408       .  A
C3155      F3162   1.357       .  S
C3156      C3157   1.406       .  A
C3156      F3161   1.357       .  S
C3157      C3158   1.401       .  A
C3158      F3159   1.355       .  S
C3163      C3164   1.416       .  A
C3163      C3168   1.390       .  A
C3163      F3170   1.357       .  S
C3164      C3165   1.411       .  A
C3165      C3166   1.408       .  A
C3165      F3172   1.356       .  S
C3166      C3167   1.406       .  A
C3166      F3171   1.357       .  S
C3167      C3168   1.398       .  A
C3168      F3169   1.358       .  S
C3173      C3174   1.401       .  A
C3173      C3178   1.393       .  A
C3173      F3180   1.355       .  S
C3174      C3175   1.406       .  A
C3175      C3176   1.409       .  A
C3175      F3182   1.357       .  S
C3176      C3177   1.410       .  A
C3176      F3181   1.356       .  S
C3177      C3178   1.412       .  A
C3178      F3179   1.358       .  S
C3183      C3184   1.400       .  A
C3183      C3188   1.389       .  A
C3183      F3190   1.356       .  S
C3184      C3185   1.405   1_655  A
C3185      C3186   1.407       .  A
C3185      F3192   1.357       .  S
C3186      C3187   1.409   1_455  A
C3186      F3191   1.356       .  S
C3187      C3188   1.411       .  A
C3188      F3189   1.358       .  S
C3193      C3194   1.407       .  A
C3193      C3198   1.410       .  A
C3193      F3200   1.357       .  S
C3194      C3195   1.402       .  A
C3195      C3196   1.392       .  A
C3195      F3202   1.354       .  S
C3196      C3197   1.412       .  A
C3196      F3201   1.358       .  S
C3197      C3198   1.411       .  A
C3198      F3199   1.356       .  S
C3203      C3204   1.406       .  A
C3203      C3208   1.408       .  A
C3203      F3210   1.357       .  S
C3204      C3205   1.400       .  A
C3205      C3206   1.389       .  A
C3205      F3212   1.356       .  S
C3206      C3207   1.412       .  A
C3206      F3211   1.358       .  S
C3207      C3208   1.409       .  A
C3208      F3209   1.356       .  S
C3213      C3214   1.402       .  A
C3213      C3218   1.396       .  A
C3213      F3220   1.357       .  S
C3214      C3215   1.405       .  A
C3215      C3216   1.408       .  A
C3215      F3222   1.357       .  S
C3216      C3217   1.414       .  A
C3216      F3221   1.356       .  S
C3217      C3218   1.416       .  A
C3218      F3219   1.355       .  S
C3223      C3224   1.409       .  A
C3223      C3228   1.407       .  A
C3223      F3230   1.357       .  S
C3224      C3225   1.405       .  A
C3225      C3226   1.390       .  A
C3225      F3232   1.353       .  S
C3226      C3227   1.405       .  A
C3226      F3231   1.359       .  S
C3227      C3228   1.405       .  A
C3228      F3229   1.357       .  S
C3233      C3234   1.405   1_455  A
C3233      C3238   1.408       .  A
C3233      F3240   1.357       .  S
C3234      C3235   1.400       .  A
C3235      C3236   1.389       .  A
C3235      F3242   1.357       .  S
C3236      C3237   1.411       .  A
C3236      F3241   1.358       .  S
C3237      C3238   1.410   1_655  A
C3238      F3239   1.356       .  S
C3243      C3244   1.404       .  A
C3243      C3248   1.394       .  A
C3243      F3250   1.355       .  S
C3244      C3245   1.407       .  A
C3245      C3246   1.410       .  A
C3245      F3252   1.357       .  S
C3246      C3247   1.410       .  A
C3246      F3251   1.357       .  S
C3247      C3248   1.410       .  A
C3248      F3249   1.358       .  S
C3253      C3254   1.400       .  A
C3253      C3258   1.396       .  A
C3253      F3260   1.357       .  S
C3254      C3255   1.403       .  A
C3255      C3256   1.409       .  A
C3255      F3262   1.357       .  S
C3256      C3257   1.417       .  A
C3256      F3261   1.355       .  S
C3257      C3258   1.419       .  A
C3258      F3259   1.354       .  S
C3263      C3264   1.407       .  A
C3263      C3268   1.391       .  A
C3263      F3270   1.359       .  S
C3264      C3265   1.407       .  A
C3265      C3266   1.408       .  A
C3265      F3272   1.357       .  S
C3266      C3267   1.408       .  A
C3266      F3271   1.357       .  S
C3267      C3268   1.403       .  A
C3268      F3269   1.353       .  S
C3273      C3274   1.400       .  A
C3273      C3278   1.391       .  A
C3273      F3280   1.356       .  S
C3274      C3275   1.404       .  A
C3275      C3276   1.408       .  A
C3275      F3282   1.357       .  S
C3276      C3277   1.413       .  A
C3276      F3281   1.356       .  S
C3277      C3278   1.413       .  A
C3278      F3279   1.357       .  S
C3283      C3284   1.407       .  A
C3283      C3288   1.409       .  A
C3283      F3290   1.357       .  S
C3284      C3285   1.402       .  A
C3285      C3286   1.392       .  A
C3285      F3292   1.354       .  S
C3286      C3287   1.410       .  A
C3286      F3291   1.358       .  S
C3287      C3288   1.408       .  A
C3288      F3289   1.357       .  S
C3293      C3294   1.406       .  A
C3293      C3298   1.410       .  A
C3293      F3300   1.357       .  S
C3294      C3295   1.400       .  A
C3295      C3296   1.393       .  A
C3295      F3302   1.356       .  S
C3296      C3297   1.413       .  A
C3296      F3301   1.357       .  S
C3297      C3298   1.411       .  A
C3298      F3299   1.356       .  S
C3303      C3304   1.400       .  A
C3303      C3308   1.391       .  A
C3303      F3310   1.356       .  S
C3304      C3305   1.405       .  A
C3305      C3306   1.406       .  A
C3305      F3312   1.357       .  S
C3306      C3307   1.408       .  A
C3306      F3311   1.356       .  S
C3307      C3308   1.412       .  A
C3308      F3309   1.358       .  S
C3313      C3314   1.401       .  A
C3313      C3318   1.392       .  A
C3313      F3320   1.354       .  S
C3314      C3315   1.407       .  A
C3315      C3316   1.410       .  A
C3315      F3322   1.357       .  S
C3316      C3317   1.410       .  A
C3316      F3321   1.356       .  S
C3317      C3318   1.412       .  A
C3318      F3319   1.358       .  S
C3323      C3324   1.406       .  A
C3323      C3328   1.409       .  A
C3323      F3330   1.357       .  S
C3324      C3325   1.399       .  A
C3325      C3326   1.390       .  A
C3325      F3332   1.356       .  S
C3326      C3327   1.413       .  A
C3326      F3331   1.358       .  S
C3327      C3328   1.409       .  A
C3328      F3329   1.356       .  S
C3333      C3334   1.402       .  A
C3333      C3338   1.393       .  A
C3333      F3340   1.355       .  S
C3334      C3335   1.406       .  A
C3335      C3336   1.408       .  A
C3335      F3342   1.357       .  S
C3336      C3337   1.410       .  A
C3336      F3341   1.357       .  S
C3337      C3338   1.410       .  A
C3338      F3339   1.358       .  S
C3343      C3344   1.400       .  A
C3343      C3348   1.393       .  A
C3343      F3350   1.357       .  S
C3344      C3345   1.405       .  A
C3345      C3346   1.408       .  A
C3345      F3352   1.357       .  S
C3346      C3347   1.412       .  A
C3346      F3351   1.356       .  S
C3347      C3348   1.415       .  A
C3348      F3349   1.357       .  S
C3353      C3354   1.400       .  A
C3353      C3358   1.391       .  A
C3353      F3360   1.356       .  S
C3354      C3355   1.406       .  A
C3355      C3356   1.409       .  A
C3355      F3362   1.357       .  S
C3356      C3357   1.411       .  A
C3356      F3361   1.356       .  S
C3357      C3358   1.412       .  A
C3358      F3359   1.357       .  S
C3363      C3364   1.407       .  A
C3363      C3368   1.408       .  A
C3363      F3370   1.357       .  S
C3364      C3365   1.401       .  A
C3365      C3366   1.392       .  A
C3365      F3372   1.355       .  S
C3366      C3367   1.411       .  A
C3366      F3371   1.358       .  S
C3367      C3368   1.409       .  A
C3368      F3369   1.357       .  S
C3373      C3374   1.402       .  A
C3373      C3378   1.392       .  A
C3373      F3380   1.354       .  S
C3374      C3375   1.407       .  A
C3375      C3376   1.409       .  A
C3375      F3382   1.357       .  S
C3376      C3377   1.409       .  A
C3376      F3381   1.357       .  S
C3377      C3378   1.410       .  A
C3378      F3379   1.358       .  S
C3383      C3384   1.413       .  A
C3383      C3388   1.409       .  A
C3383      F3390   1.356       .  S
C3384      C3385   1.413       .  A
C3385      C3386   1.392       .  A
C3385      F3392   1.357       .  S
C3386      C3387   1.401       .  A
C3386      F3391   1.356       .  S
C3387      C3388   1.405       .  A
C3388      F3389   1.357       .  S
C3393      C3394   1.400       .  A
C3393      C3398   1.391       .  A
C3393      F3400   1.356       .  S
C3394      C3395   1.405       .  A
C3395      C3396   1.407       .  A
C3395      F3402   1.357       .  S
C3396      C3397   1.409       .  A
C3396      F3401   1.356       .  S
C3397      C3398   1.411       .  A
C3398      F3399   1.358       .  S
C3403      C3404   1.401       .  A
C3403      C3408   1.389       .  A
C3403      F3410   1.354       .  S
C3404      C3405   1.407       .  A
C3405      C3406   1.407       .  A
C3405      F3412   1.357       .  S
C3406      C3407   1.408       .  A
C3406      F3411   1.357       .  S
C3407      C3408   1.408       .  A
C3408      F3409   1.358       .  S
C3413      C3414   1.405       .  A
C3413      C3418   1.408       .  A
C3413      F3420   1.357       .  S
C3414      C3415   1.400       .  A
C3415      C3416   1.394       .  A
C3415      F3422   1.356       .  S
C3416      C3417   1.414       .  A
C3416      F3421   1.357       .  S
C3417      C3418   1.412       .  A
C3418      F3419   1.356       .  S
C3423      C3424   1.406       .  A
C3423      C3428   1.407       .  A
C3423      F3430   1.357       .  S
C3424      C3425   1.400       .  A
C3425      C3426   1.390       .  A
C3425      F3432   1.355       .  S
C3426      C3427   1.410       .  A
C3426      F3431   1.358       .  S
C3427      C3428   1.408       .  A
C3428      F3429   1.357       .  S
C3433      C3434   1.406       .  A
C3433      C3438   1.391       .  A
C3433      F3440   1.359       .  S
C3434      C3435   1.407   1_556  A
C3435      C3436   1.408       .  A
C3435      F3442   1.357       .  S
C3436      C3437   1.408   1_554  A
C3436      F3441   1.357       .  S
C3437      C3438   1.405       .  A
C3438      F3439   1.354       .  S
C3443      C3444   1.405       .  A
C3443      C3448   1.407       .  A
C3443      F3450   1.357       .  S
C3444      C3445   1.401       .  A
C3445      C3446   1.393       .  A
C3445      F3452   1.356   1_554  S
C3446      C3447   1.415       .  A
C3446      F3451   1.355       .  S
C3447      C3448   1.414       .  A
C3448      F3449   1.356       .  S
C3453      C3454   1.404       .  A
C3453      C3458   1.393       .  A
C3453      F3460   1.355   1_545  S
C3454      C3455   1.407       .  A
C3455      C3456   1.409       .  A
C3455      F3462   1.357       .  S
C3456      C3457   1.410       .  A
C3456      F3461   1.357       .  S
C3457      C3458   1.409       .  A
C3458      F3459   1.358       .  S
C3463      C3464   1.399       .  A
C3463      C3468   1.387       .  A
C3463      F3470   1.358       .  S
C3464      C3465   1.406       .  A
C3465      C3466   1.407       .  A
C3465      F3472   1.357   1_565  S
C3466      C3467   1.409       .  A
C3466      F3471   1.356   1_565  S
C3467      C3468   1.413       .  A
C3468      F3469   1.358       .  S
C3473      C3474   1.413       .  A
C3473      C3478   1.393       .  A
C3473      F3480   1.357       .  S
C3474      C3475   1.411       .  A
C3475      C3476   1.410       .  A
C3475      F3482   1.356       .  S
C3476      C3477   1.406       .  A
C3476      F3481   1.357       .  S
C3477      C3478   1.401       .  A
C3478      F3479   1.355       .  S
C3483      C3484   1.410       .  A
C3483      C3488   1.408       .  A
C3483      F3490   1.357       .  S
C3484      C3485   1.411       .  A
C3485      C3486   1.391       .  A
C3485      F3492   1.358       .  S
C3486      C3487   1.401       .  A
C3486      F3491   1.354       .  S
C3487      C3488   1.406       .  A
C3488      F3489   1.357       .  S
C3493      C3494   1.412       .  A
C3493      C3498   1.391       .  A
C3493      F3500   1.358       .  S
C3494      C3495   1.409       .  A
C3495      C3496   1.407       .  A
C3495      F3502   1.356       .  S
C3496      C3497   1.406       .  A
C3496      F3501   1.357       .  S
C3497      C3498   1.400       .  A
C3498      F3499   1.356       .  S
C3503      C3504   1.400       .  A
C3503      C3508   1.393       .  A
C3503      F3510   1.356       .  S
C3504      C3505   1.405       .  A
C3505      C3506   1.409       .  A
C3505      F3512   1.357       .  S
C3506      C3507   1.411       .  A
C3506      F3511   1.356       .  S
C3507      C3508   1.413       .  A
C3508      F3509   1.357       .  S
C3513      C3514   1.407       .  A
C3513      C3518   1.409       .  A
C3513      F3520   1.357       .  S
C3514      C3515   1.401       .  A
C3515      C3516   1.391       .  A
C3515      F3522   1.354       .  S
C3516      C3517   1.412       .  A
C3516      F3521   1.358       .  S
C3517      C3518   1.410       .  A
C3518      F3519   1.356       .  S
C3523      C3524   1.407       .  A
C3523      C3528   1.409       .  A
C3523      F3530   1.357       .  S
C3524      C3525   1.401       .  A
C3525      C3526   1.390       .  A
C3525      F3532   1.355       .  S
C3526      C3527   1.411       .  A
C3526      F3531   1.358       .  S
C3527      C3528   1.409       .  A
C3528      F3529   1.356       .  S
C3533      C3534   1.408       .  A
C3533      C3538   1.391       .  A
C3533      F3540   1.359       .  S
C3534      C3535   1.407       .  A
C3535      C3536   1.408       .  A
C3535      F3542   1.357       .  S
C3536      C3537   1.407       .  A
C3536      F3541   1.357       .  S
C3537      C3538   1.403       .  A
C3538      F3539   1.354       .  S
C3543      C3544   1.411       .  A
C3543      C3548   1.391       .  A
C3543      F3550   1.358       .  S
C3544      C3545   1.408       .  A
C3545      C3546   1.406       .  A
C3545      F3552   1.356       .  S
C3546      C3547   1.405       .  A
C3546      F3551   1.357       .  S
C3547      C3548   1.401       .  A
C3548      F3549   1.356       .  S
C3553      C3554   1.413       .  A
C3553      C3558   1.407       .  A
C3553      F3560   1.356       .  S
C3554      C3555   1.415       .  A
C3555      C3556   1.390       .  A
C3555      F3562   1.356       .  S
C3556      C3557   1.399       .  A
C3556      F3561   1.357       .  S
C3557      C3558   1.404       .  A
C3558      F3559   1.357       .  S
C3563      C3564   1.411       .  A
C3563      C3568   1.392       .  A
C3563      F3570   1.358       .  S
C3564      C3565   1.410       .  A
C3565      C3566   1.410       .  A
C3565      F3572   1.356       .  S
C3566      C3567   1.407       .  A
C3566      F3571   1.357       .  S
C3567      C3568   1.402       .  A
C3568      F3569   1.355       .  S
C3573      C3574   1.412       .  A
C3573      C3578   1.393       .  A
C3573      F3580   1.357       .  S
C3574      C3575   1.412       .  A
C3575      C3576   1.409       .  A
C3575      F3582   1.356       .  S
C3576      C3577   1.406       .  A
C3576      F3581   1.357       .  S
C3577      C3578   1.402       .  A
C3578      F3579   1.355       .  S
C3583      C3584   1.411       .  A
C3583      C3588   1.390       .  A
C3583      F3590   1.358       .  S
C3584      C3585   1.408       .  A
C3585      C3586   1.409       .  A
C3585      F3592   1.356       .  S
C3586      C3587   1.407       .  A
C3586      F3591   1.357       .  S
C3587      C3588   1.401       .  A
C3588      F3589   1.355       .  S
C3593      C3594   1.416       .  A
C3593      C3598   1.389       .  A
C3593      F3600   1.357       .  S
C3594      C3595   1.411       .  A
C3595      C3596   1.408       .  A
C3595      F3602   1.356       .  S
C3596      C3597   1.406       .  A
C3596      F3601   1.357       .  S
C3597      C3598   1.398       .  A
C3598      F3599   1.359       .  S
C3603      C3604   1.408       .  A
C3603      C3608   1.407       .  A
C3603      F3610   1.357       .  S
C3604      C3605   1.405       .  A
C3605      C3606   1.398       .  A
C3605      F3612   1.357       .  S
C3606      C3607   1.410       .  A
C3606      F3611   1.358       .  S
C3607      C3608   1.408       .  A
C3608      F3609   1.357       .  S
C3613      C3614   1.413       .  A
C3613      C3618   1.409       .  A
C3613      F3620   1.356       .  S
C3614      C3615   1.415       .  A
C3615      C3616   1.394       .  A
C3615      F3622   1.357       .  S
C3616      C3617   1.400       .  A
C3616      F3621   1.357       .  S
C3617      C3618   1.405       .  A
C3618      F3619   1.357       .  S
C3623      C3624   1.413       .  A
C3623      C3628   1.410       .  A
C3623      F3630   1.356       .  S
C3624      C3625   1.415       .  A
C3625      C3626   1.395       .  A
C3625      F3632   1.356       .  S
C3626      C3627   1.403       .  A
C3626      F3631   1.356       .  S
C3627      C3628   1.407       .  A
C3628      F3629   1.357       .  S
C3633      C3634   1.408       .  A
C3633      C3638   1.406       .  A
C3633      F3640   1.357       .  S
C3634      C3635   1.413       .  A
C3635      C3636   1.395       .  A
C3635      F3642   1.358       .  S
C3636      C3637   1.401       .  A
C3636      F3641   1.358       .  S
C3637      C3638   1.406       .  A
C3638      F3639   1.357       .  S
C3643      C3644   1.407       .  A
C3643      C3648   1.391       .  A
C3643      F3650   1.359       .  S
C3644      C3645   1.407       .  A
C3645      C3646   1.408       .  A
C3645      F3652   1.357       .  S
C3646      C3647   1.408       .  A
C3646      F3651   1.357       .  S
C3647      C3648   1.405       .  A
C3648      F3649   1.355       .  S
C3653      C3654   1.405       .  A
C3653      C3658   1.407       .  A
C3653      F3660   1.357       .  S
C3654      C3655   1.400       .  A
C3655      C3656   1.391       .  A
C3655      F3662   1.356       .  S
C3656      C3657   1.413       .  A
C3656      F3661   1.358       .  S
C3657      C3658   1.410       .  A
C3658      F3659   1.356       .  S
C3663      C3664   1.410       .  A
C3663      C3668   1.408       .  A
C3663      F3670   1.356       .  S
C3664      C3665   1.410       .  A
C3665      C3666   1.391       .  A
C3665      F3672   1.358       .  S
C3666      C3667   1.401       .  A
C3666      F3671   1.355       .  S
C3667      C3668   1.406       .  A
C3668      F3669   1.357       .  S
C3673      C3674   1.406       .  A
C3673      C3678   1.409       .  A
C3673      F3680   1.357       .  S
C3674      C3675   1.398       .  A
C3675      C3676   1.390       .  A
C3675      F3682   1.358       .  S
C3676      C3677   1.416       .  A
C3676      F3681   1.357       .  S
C3677      C3678   1.411       .  A
C3678      F3679   1.356       .  S
C3683      C3684   1.403       .  A
C3683      C3688   1.395       .  A
C3683      F3690   1.357       .  S
C3684      C3685   1.407       .  A
C3685      C3686   1.406       .  A
C3685      F3692   1.357       .  S
C3686      C3687   1.408       .  A
C3686      F3691   1.357       .  S
C3687      C3688   1.410       .  A
C3688      F3689   1.358       .  S
C3693      C3694   1.416       .  A
C3693      C3698   1.394       .  A
C3693      F3700   1.355       .  S
C3694      C3695   1.414       .  A
C3695      C3696   1.409       .  A
C3695      F3702   1.356       .  S
C3696      C3697   1.405       .  A
C3696      F3701   1.357       .  S
C3697      C3698   1.402       .  A
C3698      F3699   1.356       .  S
C3703      C3704   1.407       .  A
C3703      C3708   1.407       .  A
C3703      F3710   1.357       .  S
C3704      C3705   1.405       .  A
C3705      C3706   1.391       .  A
C3705      F3712   1.354       .  S
C3706      C3707   1.407       .  A
C3706      F3711   1.359       .  S
C3707      C3708   1.408       .  A
C3708      F3709   1.357       .  S
C3713      C3714   1.405       .  A
C3713      C3718   1.409       .  A
C3713      F3720   1.357       .  S
C3714      C3715   1.401       .  A
C3715      C3716   1.393       .  A
C3715      F3722   1.356       .  S
C3716      C3717   1.413       .  A
C3716      F3721   1.357       .  S
C3717      C3718   1.413       .  A
C3718      F3719   1.356       .  S
C3723      C3724   1.401       .  A
C3723      C3728   1.391       .  A
C3723      F3730   1.355       .  S
C3724      C3725   1.406       .  A
C3725      C3726   1.408       .  A
C3725      F3732   1.357       .  S
C3726      C3727   1.408       .  A
C3726      F3731   1.357       .  S
C3727      C3728   1.410       .  A
C3728      F3729   1.358       .  S
C3733      C3734   1.406       .  A
C3733      C3738   1.409       .  A
C3733      F3740   1.357       .  S
C3734      C3735   1.400       .  A
C3735      C3736   1.390       .  A
C3735      F3742   1.356   1_556  S
C3736      C3737   1.413       .  A
C3736      F3741   1.358       .  S
C3737      C3738   1.410       .  A
C3738      F3739   1.356       .  S
C3743      C3744   1.407       .  A
C3743      C3748   1.408       .  A
C3743      F3750   1.357   1_554  S
C3744      C3745   1.401       .  A
C3745      C3746   1.390       .  A
C3745      F3752   1.354       .  S
C3746      C3747   1.410       .  A
C3746      F3751   1.358       .  S
C3747      C3748   1.409       .  A
C3748      F3749   1.357   1_554  S
C3753      C3754   1.408       .  A
C3753      C3758   1.407       .  A
C3753      F3760   1.357       .  S
C3754      C3755   1.405       .  A
C3755      C3756   1.395       .  A
C3755      F3762   1.357       .  S
C3756      C3757   1.408       .  A
C3756      F3761   1.358       .  S
C3757      C3758   1.407       .  A
C3758      F3759   1.357       .  S
C3763      C3764   1.406       .  A
C3763      C3768   1.408       .  A
C3763      F3770   1.357       .  S
C3764      C3765   1.402       .  A
C3765      C3766   1.395       .  A
C3765      F3772   1.357       .  S
C3766      C3767   1.416       .  A
C3766      F3771   1.355       .  S
C3767      C3768   1.414       .  A
C3768      F3769   1.356       .  S
C3773      C3774   1.404       .  A
C3773      C3778   1.398       .  A
C3773      F3780   1.357       .  S
C3774      C3775   1.408   1_545  A
C3775      C3776   1.408       .  A
C3775      F3782   1.357       .  S
C3776      C3777   1.408   1_565  A
C3776      F3781   1.357       .  S
C3777      C3778   1.411       .  A
C3778      F3779   1.358       .  S
C3783      C3784   1.398       .  A
C3783      C3788   1.389       .  A
C3783      F3790   1.358       .  S
C3784      C3785   1.406       .  A
C3785      C3786   1.409       .  A
C3785      F3792   1.357       .  S
C3786      C3787   1.411       .  A
C3786      F3791   1.356       .  S
C3787      C3788   1.415       .  A
C3788      F3789   1.357       .  S
C3793      C3794   1.407   1_554  A
C3793      C3798   1.405       .  A
C3793      F3800   1.357       .  S
C3794      C3795   1.408       .  A
C3795      C3796   1.395       .  A
C3795      F3802   1.358       .  S
C3796      C3797   1.405       .  A
C3796      F3801   1.357       .  S
C3797      C3798   1.408   1_556  A
C3798      F3799   1.357       .  S
C3803      C3804   1.406       .  A
C3803      C3808   1.409       .  A
C3803      F3810   1.357   1_554  S
C3804      C3805   1.401       .  A
C3805      C3806   1.391       .  A
C3805      F3812   1.355       .  S
C3806      C3807   1.411       .  A
C3806      F3811   1.358       .  S
C3807      C3808   1.410       .  A
C3808      F3809   1.356   1_554  S
C3813      C3814   1.412       .  A
C3813      C3818   1.391       .  A
C3813      F3820   1.358       .  S
C3814      C3815   1.410       .  A
C3815      C3816   1.408       .  A
C3815      F3822   1.356   1_565  S
C3816      C3817   1.406       .  A
C3816      F3821   1.357   1_565  S
C3817      C3818   1.400       .  A
C3818      F3819   1.356       .  S
C3823      C3824   1.409   1_565  A
C3823      C3828   1.409       .  A
C3823      F3830   1.356       .  S
C3824      C3825   1.411       .  A
C3825      C3826   1.390       .  A
C3825      F3832   1.358       .  S
C3826      C3827   1.401       .  A
C3826      F3831   1.355   1_556  S
C3827      C3828   1.407   1_545  A
C3828      F3829   1.357       .  S
C3833      C3834   1.416       .  A
C3833      C3838   1.395       .  A
C3833      F3840   1.355       .  S
C3834      C3835   1.413       .  A
C3835      C3836   1.407       .  A
C3835      F3842   1.356       .  S
C3836      C3837   1.405       .  A
C3836      F3841   1.357       .  S
C3837      C3838   1.402       .  A
C3838      F3839   1.357   1_554  S
C3843      C3844   1.408       .  A
C3843      C3848   1.409       .  A
C3843      F3850   1.357       .  S
C3844      C3845   1.407       .  A
C3845      C3846   1.393       .  A
C3845      F3852   1.358       .  S
C3846      C3847   1.406       .  A
C3846      F3851   1.354       .  S
C3847      C3848   1.408       .  A
C3848      F3849   1.357       .  S
C3853      C3854   1.411       .  A
C3853      C3858   1.410       .  A
C3853      F3860   1.356       .  S
C3854      C3855   1.412       .  A
C3855      C3856   1.392       .  A
C3855      F3862   1.358       .  S
C3856      C3857   1.401       .  A
C3856      F3861   1.355   1_545  S
C3857      C3858   1.406       .  A
C3858      F3859   1.357       .  S
C3863      C3864   1.412       .  A
C3863      C3868   1.393       .  A
C3863      F3870   1.357       .  S
C3864      C3865   1.411       .  A
C3865      C3866   1.410       .  A
C3865      F3872   1.356       .  S
C3866      C3867   1.406       .  A
C3866      F3871   1.357       .  S
C3867      C3868   1.402       .  A
C3868      F3869   1.355   1_556  S
C3873      C3874   1.410       .  A
C3873      C3878   1.396       .  A
C3873      F3880   1.358       .  S
C3874      C3875   1.409       .  A
C3875      C3876   1.406       .  A
C3875      F3882   1.357   1_565  S
C3876      C3877   1.406       .  A
C3876      F3881   1.357   1_565  S
C3877      C3878   1.404       .  A
C3878      F3879   1.357       .  S
C3883      C3884   1.414       .  A
C3883      C3888   1.409   1_545  A
C3883      F3890   1.356   1_545  S
C3884      C3885   1.415       .  A
C3885      C3886   1.394       .  A
C3885      F3892   1.355       .  S
C3886      C3887   1.402       .  A
C3886      F3891   1.356       .  S
C3887      C3888   1.406   1_545  A
C3888      F3889   1.357       .  S
C3893      C3894   1.414       .  A
C3893      C3898   1.389       .  A
C3893      F3900   1.358       .  S
C3894      C3895   1.409   1_556  A
C3895      C3896   1.407       .  A
C3895      F3902   1.356       .  S
C3896      C3897   1.406   1_554  A
C3896      F3901   1.357       .  S
C3897      C3898   1.399       .  A
C3898      F3899   1.358   1_545  S
C3903      C3904   1.400       .  A
C3903      C3908   1.390       .  A
C3903      F3910   1.356       .  S
C3904      C3905   1.406       .  A
C3905      C3906   1.407       .  A
C3905      F3912   1.357   1_554  S
C3906      C3907   1.407       .  A
C3906      F3911   1.356   1_554  S
C3907      C3908   1.411       .  A
C3908      F3909   1.358       .  S
C3913      C3914   1.408       .  A
C3913      C3918   1.392       .  A
C3913      F3920   1.358       .  S
C3914      C3915   1.409       .  A
C3915      C3916   1.409       .  A
C3915      F3922   1.357       .  S
C3916      C3917   1.407       .  A
C3916      F3921   1.357       .  S
C3917      C3918   1.404       .  A
C3918      F3919   1.354   1_556  S
C3923      C3924   1.399       .  A
C3923      C3928   1.389       .  A
C3923      F3930   1.357       .  S
C3924      C3925   1.405       .  A
C3925      C3926   1.408       .  A
C3925      F3932   1.357   1_554  S
C3926      C3927   1.410       .  A
C3926      F3931   1.356   1_554  S
C3927      C3928   1.414       .  A
C3928      F3929   1.357       .  S
C3933      C3934   1.409       .  A
C3933      C3938   1.394       .  A
C3933      F3940   1.358       .  S
C3934      C3935   1.409       .  A
C3935      C3936   1.408       .  A
C3935      F3942   1.357       .  S
C3936      C3937   1.407       .  A
C3936      F3941   1.357       .  S
C3937      C3938   1.404       .  A
C3938      F3939   1.354       .  S
C3943      C3944   1.414       .  A
C3943      C3948   1.391       .  A
C3943      F3950   1.357       .  S
C3944      C3945   1.412       .  A
C3945      C3946   1.407       .  A
C3945      F3952   1.356       .  S
C3946      C3947   1.404       .  A
C3946      F3951   1.357       .  S
C3947      C3948   1.399       .  A
C3948      F3949   1.357       .  S
C3953      C3954   1.408   1_655  A
C3953      C3958   1.408       .  A
C3953      F3960   1.357       .  S
C3954      C3955   1.403       .  A
C3955      C3956   1.390       .  A
C3955      F3962   1.353       .  S
C3956      C3957   1.407       .  A
C3956      F3961   1.359       .  S
C3957      C3958   1.407   1_455  A
C3958      F3959   1.357       .  S
C3963      C3964   1.413       .  A
C3963      C3968   1.408       .  A
C3963      F3970   1.355       .  S
C3964      C3965   1.416       .  A
C3965      C3966   1.391       .  A
C3965      F3972   1.356       .  S
C3966      C3967   1.399       .  A
C3966      F3971   1.357   1_655  S
C3967      C3968   1.404       .  A
C3968      F3969   1.357       .  S
C3973      C3974   1.401       .  A
C3973      C3978   1.390       .  A
C3973      F3980   1.356       .  S
C3974      C3975   1.405       .  A
C3975      C3976   1.409       .  A
C3975      F3982   1.357       .  S
C3976      C3977   1.411       .  A
C3976      F3981   1.356       .  S
C3977      C3978   1.412       .  A
C3978      F3979   1.357       .  S
C3983      C3984   1.402       .  A
C3983      C3988   1.391       .  A
C3983      F3990   1.354       .  S
C3984      C3985   1.406       .  A
C3985      C3986   1.408       .  A
C3985      F3992   1.357       .  S
C3986      C3987   1.409       .  A
C3986      F3991   1.356       .  S
C3987      C3988   1.410       .  A
C3988      F3989   1.358       .  S
C3993      C3994   1.409       .  A
C3993      C3998   1.407       .  A
C3993      F4000   1.356   1_554  S
C3994      C3995   1.412       .  A
C3995      C3996   1.391       .  A
C3995      F4002   1.358       .  S
C3996      C3997   1.401       .  A
C3996      F4001   1.356   1_655  S
C3997      C3998   1.405       .  A
C3998      F3999   1.357   1_554  S
C4003      C4004   1.408       .  A
C4003      C4008   1.392       .  A
C4003      F4010   1.359       .  S
C4004      C4005   1.407   1_556  A
C4005      C4006   1.408       .  A
C4005      F4012   1.357       .  S
C4006      C4007   1.408   1_554  A
C4006      F4011   1.357       .  S
C4007      C4008   1.404       .  A
C4008      F4009   1.354       .  S
C4013      C4014   1.406       .  A
C4013      C4018   1.409       .  A
C4013      F4020   1.357   1_455  S
C4014      C4015   1.401       .  A
C4015      C4016   1.391       .  A
C4015      F4022   1.354   1_556  S
C4016      C4017   1.411       .  A
C4016      F4021   1.358       .  S
C4017      C4018   1.411       .  A
C4018      F4019   1.356   1_455  S
C4023      C4024   1.412       .  A
C4023      C4028   1.395       .  A
C4023      F4030   1.358       .  S
C4024      C4025   1.409   1_655  A
C4025      C4026   1.406       .  A
C4025      F4032   1.357       .  S
C4026      C4027   1.406   1_455  A
C4026      F4031   1.357       .  S
C4027      C4028   1.402       .  A
C4028      F4029   1.357       .  S
C4033      C4034   1.414       .  A
C4033      C4038   1.390       .  A
C4033      F4040   1.357       .  S
C4034      C4035   1.410       .  A
C4035      C4036   1.408       .  A
C4035      F4042   1.356       .  S
C4036      C4037   1.406       .  A
C4036      F4041   1.357       .  S
C4037      C4038   1.398       .  A
C4038      F4039   1.357       .  S
C4043      C4044   1.410       .  A
C4043      C4048   1.409       .  A
C4043      F4050   1.356       .  S
C4044      C4045   1.413       .  A
C4045      C4046   1.389       .  A
C4045      F4052   1.358       .  S
C4046      C4047   1.399       .  A
C4046      F4051   1.357   1_556  S
C4047      C4048   1.406       .  A
C4048      F4049   1.357       .  S
C4053      C4054   1.418       .  A
C4053      C4058   1.391       .  A
C4053      F4060   1.355       .  S
C4054      C4055   1.415       .  A
C4055      C4056   1.408       .  A
C4055      F4062   1.355       .  S
C4056      C4057   1.403       .  A
C4056      F4061   1.357       .  S
C4057      C4058   1.398       .  A
C4058      F4059   1.358       .  S
C4063      C4064   1.412       .  A
C4063      C4068   1.392       .  A
C4063      F4070   1.358       .  S
C4064      C4065   1.410       .  A
C4065      C4066   1.407       .  A
C4065      F4072   1.356       .  S
C4066      C4067   1.405       .  A
C4066      F4071   1.357       .  S
C4067      C4068   1.401       .  A
C4068      F4069   1.356   1_655  S
C4073      C4074   1.399       .  A
C4073      C4078   1.389       .  A
C4073      F4080   1.356       .  S
C4074      C4075   1.405       .  A
C4075      C4076   1.407       .  A
C4075      F4082   1.357   1_455  S
C4076      C4077   1.410       .  A
C4076      F4081   1.356   1_455  S
C4077      C4078   1.412       .  A
C4078      F4079   1.358       .  S
C4083      C4084   1.406       .  A
C4083      C4088   1.409       .  A
C4083      F4090   1.357   1_554  S
C4084      C4085   1.402       .  A
C4085      C4086   1.393       .  A
C4085      F4092   1.355       .  S
C4086      C4087   1.411       .  A
C4086      F4091   1.358       .  S
C4087      C4088   1.410       .  A
C4088      F4089   1.356   1_554  S
C4093      C4094   1.400       .  A
C4093      C4098   1.392       .  A
C4093      F4100   1.355       .  S
C4094      C4095   1.406       .  A
C4095      C4096   1.408       .  A
C4095      F4102   1.357       .  S
C4096      C4097   1.410       .  A
C4096      F4101   1.356       .  S
C4097      C4098   1.412       .  A
C4098      F4099   1.358       .  S
C4103      C4104   1.405       .  A
C4103      C4108   1.407       .  A
C4103      F4110   1.357       .  S
C4104      C4105   1.400       .  A
C4105      C4106   1.392       .  A
C4105      F4112   1.356       .  S
C4106      C4107   1.413       .  A
C4106      F4111   1.358       .  S
C4107      C4108   1.411       .  A
C4108      F4109   1.356       .  S
C4113      C4114   1.410       .  A
C4113      C4118   1.390       .  A
C4113      F4120   1.358       .  S
C4114      C4115   1.408       .  A
C4115      C4116   1.408       .  A
C4115      F4122   1.357       .  S
C4116      C4117   1.407       .  A
C4116      F4121   1.357       .  S
C4117      C4118   1.401       .  A
C4118      F4119   1.354       .  S
C4123      C4124   1.400       .  A
C4123      C4128   1.392       .  A
C4123      F4130   1.356       .  S
C4124      C4125   1.404   1_545  A
C4125      C4126   1.408       .  A
C4125      F4132   1.357       .  S
C4126      C4127   1.412   1_565  A
C4126      F4131   1.356       .  S
C4127      C4128   1.414       .  A
C4128      F4129   1.357       .  S
C4133      C4134   1.410       .  A
C4133      C4138   1.390       .  A
C4133      F4140   1.358       .  S
C4134      C4135   1.409       .  A
C4135      C4136   1.407       .  A
C4135      F4142   1.357   1_455  S
C4136      C4137   1.405       .  A
C4136      F4141   1.357   1_455  S
C4137      C4138   1.400       .  A
C4138      F4139   1.355       .  S
C4143      C4144   1.409   1_455  A
C4143      C4148   1.407       .  A
C4143      F4150   1.357       .  S
C4144      C4145   1.410       .  A
C4145      C4146   1.390       .  A
C4145      F4152   1.358       .  S
C4146      C4147   1.402       .  A
C4146      F4151   1.354       .  S
C4147      C4148   1.406   1_655  A
C4148      F4149   1.357       .  S
C4153      C4154   1.412   1_565  A
C4153      C4158   1.409       .  A
C4153      F4160   1.356       .  S
C4154      C4155   1.413       .  A
C4155      C4156   1.394       .  A
C4155      F4162   1.357       .  S
C4156      C4157   1.401       .  A
C4156      F4161   1.355   1_655  S
C4157      C4158   1.405   1_545  A
C4158      F4159   1.357       .  S
C4163      C4164   1.416       .  A
C4163      C4168   1.394       .  A
C4163      F4170   1.355       .  S
C4164      C4165   1.414       .  A
C4165      C4166   1.409       .  A
C4165      F4172   1.356       .  S
C4166      C4167   1.406       .  A
C4166      F4171   1.357       .  S
C4167      C4168   1.402       .  A
C4168      F4169   1.356       .  S
C4173      C4174   1.407       .  A
C4173      C4178   1.409       .  A
C4173      F4180   1.357       .  S
C4174      C4175   1.406       .  A
C4175      C4176   1.391       .  A
C4175      F4182   1.359       .  S
C4176      C4177   1.406       .  A
C4176      F4181   1.353       .  S
C4177      C4178   1.409       .  A
C4178      F4179   1.357       .  S
C4183      C4184   1.411       .  A
C4183      C4188   1.408       .  A
C4183      F4190   1.356       .  S
C4184      C4185   1.414       .  A
C4185      C4186   1.391       .  A
C4185      F4192   1.357       .  S
C4186      C4187   1.400       .  A
C4186      F4191   1.356       .  S
C4187      C4188   1.405       .  A
C4188      F4189   1.357       .  S
C4193      C4194   1.411       .  A
C4193      C4198   1.409       .  A
C4193      F4200   1.356       .  S
C4194      C4195   1.412       .  A
C4195      C4196   1.391       .  A
C4195      F4202   1.358       .  S
C4196      C4197   1.401       .  A
C4196      F4201   1.355       .  S
C4197      C4198   1.406       .  A
C4198      F4199   1.357       .  S
C4203      C4204   1.409   1_565  A
C4203      C4208   1.408       .  A
C4203      F4210   1.356       .  S
C4204      C4205   1.410       .  A
C4205      C4206   1.390       .  A
C4205      F4212   1.358       .  S
C4206      C4207   1.401       .  A
C4206      F4211   1.355       .  S
C4207      C4208   1.406   1_545  A
C4208      F4209   1.357       .  S
C4213      C4214   1.407       .  A
C4213      C4218   1.406       .  A
C4213      F4220   1.357       .  S
C4214      C4215   1.411       .  A
C4215      C4216   1.396       .  A
C4215      F4222   1.358       .  S
C4216      C4217   1.402       .  A
C4216      F4221   1.358   1_655  S
C4217      C4218   1.406       .  A
C4218      F4219   1.357       .  S
C4223      C4224   1.399       .  A
C4223      C4228   1.391       .  A
C4223      F4230   1.357       .  S
C4224      C4225   1.405       .  A
C4225      C4226   1.407       .  A
C4225      F4232   1.357   1_455  S
C4226      C4227   1.412       .  A
C4226      F4231   1.356   1_455  S
C4227      C4228   1.414       .  A
C4228      F4229   1.357       .  S
C4233      C4234   1.413       .  A
C4233      C4238   1.407       .  A
C4233      F4240   1.356       .  S
C4234      C4235   1.415       .  A
C4235      C4236   1.394       .  A
C4235      F4242   1.355       .  S
C4236      C4237   1.401       .  A
C4236      F4241   1.356   1_655  S
C4237      C4238   1.405       .  A
C4238      F4239   1.357       .  S
C4243      C4244   1.404   1_655  A
C4243      C4248   1.407       .  A
C4243      F4250   1.357       .  S
C4244      C4245   1.404       .  A
C4245      C4246   1.391       .  A
C4245      F4252   1.359       .  S
C4246      C4247   1.406       .  A
C4246      F4251   1.352       .  S
C4247      C4248   1.409   1_455  A
C4248      F4249   1.357       .  S
C4253      C4254   1.402       .  A
C4253      C4258   1.393       .  A
C4253      F4260   1.355       .  S
C4254      C4255   1.407       .  A
C4255      C4256   1.409       .  A
C4255      F4262   1.357       .  S
C4256      C4257   1.409       .  A
C4256      F4261   1.356       .  S
C4257      C4258   1.411       .  A
C4258      F4259   1.358       .  S
C4263      C4264   1.399       .  A
C4263      C4268   1.388       .  A
C4263      F4270   1.357       .  S
C4264      C4265   1.406       .  A
C4265      C4266   1.409       .  A
C4265      F4272   1.357       .  S
C4266      C4267   1.411       .  A
C4266      F4271   1.356       .  S
C4267      C4268   1.413       .  A
C4268      F4269   1.357       .  S
C4273      C4274   1.409       .  A
C4273      C4278   1.390       .  A
C4273      F4280   1.358       .  S
C4274      C4275   1.408       .  A
C4275      C4276   1.408       .  A
C4275      F4282   1.357       .  S
C4276      C4277   1.407       .  A
C4276      F4281   1.357       .  S
C4277      C4278   1.401       .  A
C4278      F4279   1.354       .  S
C4283      C4284   1.410       .  A
C4283      C4288   1.390       .  A
C4283      F4290   1.358       .  S
C4284      C4285   1.409       .  A
C4285      C4286   1.409       .  A
C4285      F4292   1.357       .  S
C4286      C4287   1.407       .  A
C4286      F4291   1.357       .  S
C4287      C4288   1.401       .  A
C4288      F4289   1.355       .  S
C4293      C4294   1.413       .  A
C4293      C4298   1.393       .  A
C4293      F4300   1.357       .  S
C4294      C4295   1.412       .  A
C4295      C4296   1.409       .  A
C4295      F4302   1.356       .  S
C4296      C4297   1.405       .  A
C4296      F4301   1.357       .  S
C4297      C4298   1.401       .  A
C4298      F4299   1.356       .  S
C4303      C4304   1.410       .  A
C4303      C4308   1.409       .  A
C4303      F4310   1.357       .  S
C4304      C4305   1.409       .  A
C4305      C4306   1.394       .  A
C4305      F4312   1.358       .  S
C4306      C4307   1.404       .  A
C4306      F4311   1.355       .  S
C4307      C4308   1.407       .  A
C4308      F4309   1.357       .  S
C4313      C4314   1.409       .  A
C4313      C4318   1.389       .  A
C4313      F4320   1.359       .  S
C4314      C4315   1.407       .  A
C4315      C4316   1.407       .  A
C4315      F4322   1.357       .  S
C4316      C4317   1.406       .  A
C4316      F4321   1.357       .  S
C4317      C4318   1.401       .  A
C4318      F4319   1.355       .  S
C4323      C4324   1.413       .  A
C4323      C4328   1.388       .  A
C4323      F4330   1.358       .  S
C4324      C4325   1.409       .  A
C4325      C4326   1.407       .  A
C4325      F4332   1.356       .  S
C4326      C4327   1.406       .  A
C4326      F4331   1.357       .  S
C4327      C4328   1.400       .  A
C4328      F4329   1.358       .  S
C4333      C4334   1.414       .  A
C4333      C4338   1.409       .  A
C4333      F4340   1.356       .  S
C4334      C4335   1.415       .  A
C4335      C4336   1.394       .  A
C4335      F4342   1.356       .  S
C4336      C4337   1.400       .  A
C4336      F4341   1.357       .  S
C4337      C4338   1.404       .  A
C4338      F4339   1.357       .  S
C4343      C4344   1.415       .  A
C4343      C4348   1.395       .  A
C4343      F4350   1.356       .  S
C4344      C4345   1.412       .  A
C4345      C4346   1.408       .  A
C4345      F4352   1.356       .  S
C4346      C4347   1.407       .  A
C4346      F4351   1.357       .  S
C4347      C4348   1.403       .  A
C4348      F4349   1.357       .  S
C4353      C4354   1.410       .  A
C4353      C4358   1.392       .  A
C4353      F4360   1.358       .  S
C4354      C4355   1.408       .  A
C4355      C4356   1.406       .  A
C4355      F4362   1.357       .  S
C4356      C4357   1.405       .  A
C4356      F4361   1.357       .  S
C4357      C4358   1.401       .  A
C4358      F4359   1.355       .  S
C4363      C4364   1.407       .  A
C4363      C4368   1.393       .  A
C4363      F4370   1.359       .  S
C4364      C4365   1.406       .  A
C4365      C4366   1.404       .  A
C4365      F4372   1.357       .  S
C4366      C4367   1.408       .  A
C4366      F4371   1.357       .  S
C4367      C4368   1.405       .  A
C4368      F4369   1.357       .  S
C4373      C4374   1.413       .  A
C4373      C4378   1.392       .  A
C4373      F4380   1.357       .  S
C4374      C4375   1.412       .  A
C4375      C4376   1.411       .  A
C4375      F4382   1.356       .  S
C4376      C4377   1.407       .  A
C4376      F4381   1.357       .  S
C4377      C4378   1.401       .  A
C4378      F4379   1.355       .  S
C4383      C4384   1.414       .  A
C4383      C4388   1.392       .  A
C4383      F4390   1.357       .  S
C4384      C4385   1.412       .  A
C4385      C4386   1.409       .  A
C4385      F4392   1.356       .  S
C4386      C4387   1.405       .  A
C4386      F4391   1.357       .  S
C4387      C4388   1.400       .  A
C4388      F4389   1.356       .  S
C4393      C4394   1.406       .  A
C4393      C4398   1.409       .  A
C4393      F4400   1.357       .  S
C4394      C4395   1.401       .  A
C4395      C4396   1.391       .  A
C4395      F4402   1.355   1_545  S
C4396      C4397   1.412       .  A
C4396      F4401   1.358       .  S
C4397      C4398   1.411       .  A
C4398      F4399   1.356       .  S
C4403      C4404   1.411       .  A
C4403      C4408   1.390       .  A
C4403      F4410   1.358       .  S
C4404      C4405   1.408       .  A
C4405      C4406   1.408       .  A
C4405      F4412   1.356   1_565  S
C4406      C4407   1.406       .  A
C4406      F4411   1.357   1_565  S
C4407      C4408   1.400       .  A
C4408      F4409   1.355       .  S
C4413      C4414   1.400       .  A
C4413      C4418   1.391       .  A
C4413      F4420   1.356       .  S
C4414      C4415   1.405       .  A
C4415      C4416   1.408       .  A
C4415      F4422   1.357       .  S
C4416      C4417   1.410       .  A
C4416      F4421   1.356       .  S
C4417      C4418   1.413       .  A
C4418      F4419   1.358       .  S
C4423      C4424   1.401       .  A
C4423      C4428   1.391       .  A
C4423      F4430   1.355       .  S
C4424      C4425   1.406   1_655  A
C4425      C4426   1.408       .  A
C4425      F4432   1.357       .  S
C4426      C4427   1.410   1_455  A
C4426      F4431   1.356       .  S
C4427      C4428   1.411       .  A
C4428      F4429   1.358       .  S
C4433      C4434   1.400       .  A
C4433      C4438   1.390       .  A
C4433      F4440   1.356       .  S
C4434      C4435   1.405       .  A
C4435      C4436   1.407       .  A
C4435      F4442   1.357   1_565  S
C4436      C4437   1.409       .  A
C4436      F4441   1.356   1_565  S
C4437      C4438   1.411       .  A
C4438      F4439   1.358       .  S
C4443      C4444   1.406   1_455  A
C4443      C4448   1.409       .  A
C4443      F4450   1.357       .  S
C4444      C4445   1.401       .  A
C4445      C4446   1.391       .  A
C4445      F4452   1.354   1_545  S
C4446      C4447   1.411       .  A
C4446      F4451   1.357       .  S
C4447      C4448   1.411   1_655  A
C4448      F4449   1.356       .  S
C4453      C4454   1.410       .  A
C4453      C4458   1.408       .  A
C4453      F4460   1.356       .  S
C4454      C4455   1.412       .  A
C4455      C4456   1.392       .  A
C4455      F4462   1.358       .  S
C4456      C4457   1.401       .  A
C4456      F4461   1.355       .  S
C4457      C4458   1.405       .  A
C4458      F4459   1.357       .  S
C4463      C4464   1.411       .  A
C4463      C4468   1.390       .  A
C4463      F4470   1.358       .  S
C4464      C4465   1.409   1_655  A
C4465      C4466   1.408       .  A
C4465      F4472   1.356       .  S
C4466      C4467   1.406   1_455  A
C4466      F4471   1.357       .  S
C4467      C4468   1.400       .  A
C4468      F4469   1.356       .  S
C4473      C4474   1.406   1_554  A
C4473      C4478   1.409       .  A
C4473      F4480   1.357       .  S
C4474      C4475   1.401       .  A
C4475      C4476   1.391       .  A
C4475      F4482   1.355       .  S
C4476      C4477   1.412       .  A
C4476      F4481   1.358       .  S
C4477      C4478   1.410   1_556  A
C4478      F4479   1.356       .  S
C4483      C4484   1.400       .  A
C4483      C4488   1.389       .  A
C4483      F4490   1.355       .  S
C4484      C4485   1.406       .  A
C4485      C4486   1.409       .  A
C4485      F4492   1.357       .  S
C4486      C4487   1.409       .  A
C4486      F4491   1.356       .  S
C4487      C4488   1.412       .  A
C4488      F4489   1.358       .  S
C4493      C4494   1.400       .  A
C4493      C4498   1.393       .  A
C4493      F4500   1.356       .  S
C4494      C4495   1.404   1_556  A
C4495      C4496   1.408       .  A
C4495      F4502   1.357       .  S
C4496      C4497   1.414   1_554  A
C4496      F4501   1.355       .  S
C4497      C4498   1.416       .  A
C4498      F4499   1.356       .  S
C4503      C4504   1.401       .  A
C4503      C4508   1.390       .  A
C4503      F4510   1.354       .  S
C4504      C4505   1.406   1_655  A
C4505      C4506   1.407       .  A
C4505      F4512   1.357       .  S
C4506      C4507   1.408   1_455  A
C4506      F4511   1.357       .  S
C4507      C4508   1.409       .  A
C4508      F4509   1.358       .  S
