geometry optimzed in LAMMPS
_audit_creation_date              2020-11-30 
_audit_creation_method            'lammps2cif' 
_symmetry_space_group_name_H-M    'P1' 
_symmetry_Int_Tables_number       1 
_symmetry_cell_setting            triclinic 
loop_ 
_symmetry_equiv_pos_as_xyz 
  x,y,z 
_cell_length_a                    30.93419801 
_cell_length_b                    30.979895569367915 
_cell_length_c                    31.394546301009015 
_cell_angle_alpha                 89.83640434064262 
_cell_angle_beta                  89.7507679503981 
_cell_angle_gamma                 90.89634326130107 
loop_ 
_atom_site_label 
_atom_site_type_symbol 
_atom_site_fract_x 
_atom_site_fract_y 
_atom_site_fract_z 
_atom_site_charge 
O1          O  0.59425164  0.95490878  0.48020340    -0.80600
O2          O  0.42170521  0.05055358  0.48543522    -0.80600
O3          O  0.49106653  0.96046185  0.43350688    -0.80600
O4          O  0.51787650  0.04244200  0.43400459    -0.80600
O5          O  0.42879052  0.96352943  0.46736919    -0.80700
O6          O  0.58319066  0.04096226  0.46103852    -0.80600
O7          O  0.46452533  0.10459756  0.46259001    -0.80600
O8          O  0.55093158  0.90139451  0.45809973    -0.80700
C9          C  0.58834798  0.91889172  0.45957058     1.09100
C10         C  0.42726511  0.08689800  0.46481746     1.09000
C11         C  0.45015578  0.95536947  0.43377208     1.09100
C12         C  0.55831543  0.04649747  0.42932409     1.09000
O13         O  0.56702389  0.05963140  0.55214535    -0.80600
O14         O  0.45118146  0.94389183  0.55508932    -0.80700
O15         O  0.54595386  0.92028067  0.54219069    -0.80600
O16         O  0.47347246  0.08490762  0.54518939    -0.80600
O17         O  0.44503679  0.02757834  0.57469884    -0.80700
O18         O  0.57519452  0.97759708  0.57024190    -0.80600
O19         O  0.54561646  0.10045877  0.50066197    -0.80600
O20         O  0.47271327  0.90420714  0.50208773    -0.80700
Co21       Co  0.57496352  0.00826754  0.51638603     1.51500
Co22       Co  0.44174071  0.99657212  0.52094011     1.51700
Co23       Co  0.52113682  0.94530876  0.48709639     1.51600
Co24       Co  0.49458089  0.05977625  0.48931429     1.51500
O25         O  0.50817792  0.00210736  0.51317857    -1.42600
C26         C  0.56739446  0.09590756  0.53445603     1.09000
C27         C  0.45170798  0.90794939  0.53643500     1.09100
C28         C  0.56459007  0.93864071  0.57329934     1.09000
C29         C  0.45482644  0.06692004  0.57658294     1.09000
O30         O  0.97586253  0.57946732  0.45762853    -0.80600
O31         O  0.99024036  0.40341868  0.53982699    -0.80600
O32         O  0.96138194  0.45687367  0.40071318    -0.80600
O33         O  0.93894085  0.54029470  0.56014099    -0.80600
O34         O  0.96026505  0.42468589  0.46332951    -0.80700
O35         O  0.98617839  0.59133470  0.54293404    -0.80600
O36         O  0.94289336  0.45262208  0.55048398    -0.80600
O37         O  0.93570815  0.51991888  0.45700782    -0.80700
C38         C  0.94129027  0.55909449  0.44651593     1.09100
C39         C  0.95541069  0.41498715  0.55762752     1.09000
C40         C  0.94644628  0.42720732  0.42483885     1.09100
C41         C  0.94922923  0.57991844  0.55715017     1.09000
O42         O  0.07098658  0.55590057  0.54100170    -0.80600
O43         O  0.04153073  0.39102218  0.46583744    -0.80700
O44         O  0.01397352  0.53013949  0.40889049    -0.80600
O45         O  0.03173100  0.45379319  0.58535059    -0.80600
O46         O  0.07049297  0.44931688  0.52639418    -0.80700
O47         O  0.06451743  0.54579476  0.45411716    -0.80600
O48         O  0.02518588  0.54054350  0.59332704    -0.80600
O49         O  0.04356483  0.45379624  0.43260452    -0.80700
Co50       Co  0.02425598  0.56440128  0.49913540     1.51500
Co51       Co  0.01769950  0.44093271  0.49335305     1.51700
Co52       Co  0.98739481  0.48549683  0.44864454     1.51600
Co53       Co  0.98459491  0.49684276  0.56888972     1.51500
O54         O  0.00412084  0.50263229  0.50783682    -1.42600
C55         C  0.06222219  0.55323121  0.58039333     1.09000
C56         C  0.05609509  0.41449633  0.43553708     1.09100
C57         C  0.05004555  0.54822682  0.41681130     1.09000
C58         C  0.06546592  0.44069479  0.56555003     1.09000
O59         O  0.40459143  0.48791572  0.95792461    -0.80600
O60         O  0.56999594  0.44332387  0.03408525    -0.80600
O61         O  0.53765340  0.43477477  0.93857849    -0.80600
O62         O  0.47550463  0.42061879  0.03975955    -0.80600
O63         O  0.59202246  0.47473991  0.96049043    -0.80700
O64         O  0.41701709  0.46114019  0.03980705    -0.80600
O65         O  0.54015355  0.44224839  0.09755719    -0.80600
O66         O  0.45083875  0.44125830  0.93298051    -0.80700
C67         C  0.41233315  0.45244103  0.93975343     1.09100
C68         C  0.57065839  0.43104193  0.07309074     1.09000
C69         C  0.57769013  0.43999568  0.94398586     1.09100
C70         C  0.43492710  0.42408229  0.04454450     1.09000
O71         O  0.46060398  0.54824304  0.05400119    -0.80600
O72         O  0.55470548  0.55895763  0.97865765    -0.80700
O73         O  0.46006935  0.53218244  0.91143921    -0.80600
O74         O  0.54755683  0.52564006  0.06989788    -0.80600
O75         O  0.60986267  0.52161519  0.03547579    -0.80700
O76         O  0.45032240  0.56737027  0.97162741    -0.80600
O77         O  0.46830316  0.49284956  0.09393651    -0.80600
O78         O  0.54853301  0.52652141  0.91691792    -0.80700
Co79       Co  0.43664796  0.51570772  0.00583442     1.51500
Co80       Co  0.55788137  0.50298935  0.00777119     1.51700
Co81       Co  0.49916874  0.48347710  0.92875246     1.51600
Co82       Co  0.51201676  0.47118198  0.05133932     1.51500
O83         O  0.49561654  0.49275987  0.99285601    -1.42600
C84         C  0.45539614  0.53102222  0.08972058     1.09000
C85         C  0.56390645  0.55740285  0.93951222     1.09100
C86         C  0.45016286  0.56644522  0.93136347     1.09000
C87         C  0.58737851  0.53793051  0.06517013     1.09000
C88         C  0.64016057  0.85357850  0.79901588     0.79700
N89         N  0.62236362  0.87081727  0.76350066    -0.78600
C90         C  0.63393439  0.85668591  0.72412290     0.82200
N91         N  0.66472829  0.82585749  0.72068535    -0.78500
C92         C  0.68252593  0.80849344  0.75635815     0.82300
N93         N  0.66974219  0.82210851  0.79537091    -0.80200
C94         C  0.75171026  0.71640579  0.78386397     0.79700
N95         N  0.71927660  0.74543973  0.78451231    -0.78600
C96         C  0.71611932  0.77575542  0.75353198     0.82200
N97         N  0.74587709  0.77724272  0.72181903    -0.78500
C98         C  0.77843102  0.74829859  0.72072836     0.82300
N99         N  0.78151014  0.71782261  0.75187465    -0.80200
C100        C  0.85524187  0.72001784  0.63455391     0.79700
N101        N  0.82773738  0.71588063  0.66841063    -0.78600
C102        C  0.81057609  0.75175930  0.68654940     0.82200
N103        N  0.82136841  0.79162235  0.67132281    -0.78500
C104        C  0.84908783  0.79579432  0.63812380     0.82300
N105        N  0.86555249  0.76017942  0.61992566    -0.80200
C106        C  0.79273008  0.64587809  0.87010699     0.79700
N107        N  0.75461264  0.63159716  0.88749739    -0.78600
C108        C  0.71616767  0.64277725  0.86981562     0.82200
N109        N  0.71611343  0.66956605  0.83568373    -0.78500
C110        C  0.75372849  0.68432391  0.81825445     0.82300
N111        N  0.79215308  0.67202329  0.83511135    -0.80200
C112        C  0.28722958  0.22634375  0.74892502     0.79700
N113        N  0.25956733  0.22598395  0.71537302    -0.78600
C114        C  0.22521997  0.25298386  0.71501728     0.82200
N115        N  0.21828435  0.27983198  0.74848785    -0.78500
C116        C  0.24560811  0.27992393  0.78215231     0.82300
N117        N  0.27992187  0.25322366  0.78216254    -0.80200
C118        C  0.26861374  0.35123904  0.87348958     0.79700
N119        N  0.27350741  0.32558156  0.83893795    -0.78600
C120        C  0.23861405  0.30836893  0.81871158     0.82200
N121        N  0.19803162  0.31679681  0.83318823    -0.78500
C122        C  0.19293103  0.34130243  0.86871058     0.82300
N123        N  0.22815299  0.35847131  0.88837349    -0.80200
C124        C  0.36452240  0.15047266  0.79543880     0.79700
N125        N  0.38496661  0.13583073  0.76040943    -0.78600
C126        C  0.37493519  0.15013105  0.72098193     0.82200
N127        N  0.34309785  0.17985918  0.71657898    -0.78500
C128        C  0.32257939  0.19528342  0.75199776     0.82300
N129        N  0.33373429  0.18071980  0.79134218    -0.80200
C130        C  0.15050799  0.21340071  0.63153952     0.79700
N131        N  0.13457254  0.25130058  0.61681948    -0.78600
C132        C  0.14842577  0.28964236  0.63322497     0.82200
N133        N  0.17768722  0.28992125  0.66531101    -0.78500
C134        C  0.19460755  0.25232124  0.67951550     0.82300
N135        N  0.18116213  0.21410452  0.66244886    -0.80200
O136        O  0.49237668  0.96022573  0.90739856    -0.80600
O137        O  0.47202932  0.03600721  0.08303899    -0.80600
O138        O  0.43305494  0.93547139  0.03845669    -0.80600
O139        O  0.46772568  0.09909255  0.96634606    -0.80600
O140        O  0.47708308  0.94951327  0.09202379    -0.80700
O141        O  0.46319783  0.03782008  0.93109277    -0.80600
O142        O  0.43540113  0.03943959  0.02315604    -0.80600
O143        O  0.44136011  0.94629439  0.95289087    -0.80700
C144        C  0.45611082  0.94284210  0.91573199     1.09100
C145        C  0.43834147  0.04754239  0.06249581     1.09000
C146        C  0.44072493  0.93671802  0.07781204     1.09100
C147        C  0.45171090  0.07741320  0.93607940     1.09000
O148        O  0.54458916  0.03270266  0.89807820    -0.80600
O149        O  0.56440439  0.94854302  0.06177341    -0.80700
O150        O  0.52846486  0.90947156  0.95760517    -0.80600
O151        O  0.51485666  0.08492909  0.03672431    -0.80600
O152        O  0.56315110  0.03779789  0.05307224    -0.80700
O153        O  0.57037035  0.96788546  0.95311189    -0.80600
O154        O  0.54743411  0.06388571  0.96098916    -0.80600
O155        O  0.51768923  0.89758427  0.04233067    -0.80700
Co156      Co  0.51916382  0.00409951  0.94647639     1.51500
Co157      Co  0.51940465  0.99293622  0.06857679     1.51700
Co158      Co  0.48040136  0.92588933  0.99803187     1.51600
Co159      Co  0.48940519  0.04770790  0.99113246     1.51500
O160        O  0.50286454  0.98669178  0.00639937    -1.42600
C161        C  0.55905713  0.06289417  0.92150394     1.09000
C162        C  0.55380767  0.90893227  0.05860779     1.09100
C163        C  0.56394592  0.92794032  0.94609514     1.09000
C164        C  0.54980190  0.07594077  0.05500580     1.09000
C165        C  0.29775079  0.74739902  0.77042816     0.79700
N166        N  0.29880117  0.77296573  0.73524910    -0.78600
C167        C  0.26657391  0.77037699  0.70623229     0.82200
N168        N  0.23339622  0.74215199  0.71225706    -0.78500
C169        C  0.23211468  0.71653630  0.74727200     0.82300
N170        N  0.26437919  0.71893253  0.77644094    -0.80200
C171        C  0.38448828  0.79315986  0.83728843     0.79700
N172        N  0.40019111  0.75715707  0.85580062    -0.78600
C173        C  0.38254310  0.71775785  0.84750073     0.82200
N174        N  0.34874542  0.71448440  0.82004124    -0.78500
C175        C  0.33300210  0.75054237  0.80116677     0.82300
N176        N  0.35085714  0.78982745  0.80993312    -0.80200
C177        C  0.23537381  0.84288035  0.61871675     0.79700
N178        N  0.27314218  0.84579850  0.59669531    -0.78600
C179        C  0.30857723  0.82439800  0.60988646     0.82200
N180        N  0.30646962  0.80063224  0.64613996    -0.78500
C181        C  0.26852605  0.79639444  0.66763257     0.82300
N182        N  0.23288838  0.81728796  0.65384640    -0.80200
C183        C  0.15075629  0.63471815  0.71800687     0.79700
N184        N  0.13026430  0.62842342  0.75570790    -0.78600
C185        C  0.14233521  0.65007680  0.79122351     0.82200
N186        N  0.17670250  0.67792884  0.78914021    -0.78500
C187        C  0.19725160  0.68476639  0.75125166     0.82300
N188        N  0.18387705  0.66361431  0.71573346    -0.80200
C189        C  0.75167207  0.26789598  0.22014581     0.79700
N190        N  0.77722551  0.26901491  0.25502473    -0.78600
C191        C  0.76963945  0.24093864  0.28768405     0.82200
N192        N  0.73631197  0.21188608  0.28552576    -0.78500
C193        C  0.71048043  0.21121203  0.25068432     0.82300
N194        N  0.71822875  0.23932556  0.21838984    -0.80200
C195        C  0.84068169  0.20525526  0.37437819     0.79700
N196        N  0.81032983  0.20443051  0.34328473    -0.78600
C197        C  0.79811589  0.24186666  0.32448913     0.82200
N198        N  0.81604376  0.28004691  0.33687076    -0.78500
C199        C  0.84539137  0.28122560  0.36870710     0.82300
N200        N  0.85799732  0.24372150  0.38697813    -0.80200
C201        C  0.79699580  0.34777463  0.14317399     0.79700
N202        N  0.75984219  0.36176360  0.12539830    -0.78600
C203        C  0.72093043  0.34520545  0.13767201     0.82200
N204        N  0.71944970  0.31417498  0.16790818    -0.78500
C205        C  0.75612229  0.30012738  0.18639761     0.82300
N206        N  0.79527400  0.31686069  0.17412598    -0.80200
C207        C  0.62370920  0.13189355  0.27762025     0.79700
N208        N  0.60482965  0.12689821  0.23894115    -0.78600
C209        C  0.62052772  0.14843922  0.20435525     0.82200
N210        N  0.65513868  0.17526453  0.20855047    -0.78500
C211        C  0.67403712  0.18086198  0.24708298     0.82300
N212        N  0.65860713  0.15885055  0.28155090    -0.80200
O213        O  0.95770857  0.54390374  0.94239681    -0.80600
O214        O  0.05408739  0.46346627  0.94045377    -0.80600
O215        O  0.05244494  0.60507830  0.97923711    -0.80600
O216        O  0.96377083  0.44567758  0.95829940    -0.80600
O217        O  0.06280174  0.54940719  0.93626862    -0.80700
O218        O  0.90149382  0.47953243  0.96566082    -0.80600
O219        O  0.04153271  0.41677153  0.98943413    -0.80600
O220        O  0.96291793  0.59880036  0.98579581    -0.80700
C221        C  0.94770444  0.58206610  0.95171603     1.09100
C222        C  0.05673018  0.42527756  0.95311774     1.09000
C223        C  0.06253131  0.58953580  0.94306285     1.09100
C224        C  0.92487894  0.45302614  0.94522948     1.09000
O225        O  0.93707585  0.46529457  0.04384895    -0.80600
O226        O  0.10714679  0.55201276  0.01545430    -0.80700
O227        O  0.97360052  0.56072260  0.07005330    -0.80600
O228        O  0.03249660  0.46027780  0.06690282    -0.80600
O229        O  0.09295804  0.46599422  0.02883698    -0.80700
O230        O  0.91887715  0.54484131  0.02848820    -0.80600
O231        O  0.97033379  0.40387551  0.03582763    -0.80600
O232        O  0.06016503  0.56911391  0.06467890    -0.80700
Co233      Co  0.95266924  0.50367105  0.99095889     1.51500
Co234      Co  0.07539515  0.50774856  0.98076722     1.51700
Co235      Co  0.01242724  0.57959923  0.02431852     1.51600
Co236      Co  0.99750851  0.45573555  0.01535228     1.51500
O237        O  0.01518311  0.51712513  0.00401876    -1.42600
C238        C  0.94018144  0.42485069  0.05273719     1.09000
C239        C  0.09886752  0.56522128  0.05268777     1.09100
C240        C  0.93353314  0.55567058  0.06488819     1.09000
C241        C  0.07327343  0.45654344  0.06394878     1.09000
C242        C  0.20389530  0.16024100  0.37037461     0.79700
N243        N  0.24015517  0.14609402  0.38929384    -0.78600
C244        C  0.27973738  0.15245202  0.37148792     0.82200
N245        N  0.28312812  0.17445157  0.33368519    -0.78500
C246        C  0.24667938  0.18908362  0.31414805     0.82300
N247        N  0.20725238  0.18166063  0.33271281    -0.80200
C248        C  0.24870433  0.21769788  0.27618519     0.79700
N249        N  0.21918229  0.24935345  0.27367471    -0.78600
C250        C  0.21879231  0.27743107  0.24055157     0.82200
N251        N  0.24860090  0.27385985  0.20897668    -0.78500
C252        C  0.27847419  0.24201606  0.21050411     0.82300
N253        N  0.27863295  0.21384766  0.24434347    -0.80200
C254        C  0.14494898  0.35742731  0.28521039     0.79700
N255        N  0.13378335  0.38022138  0.25014414    -0.78600
C256        C  0.14859453  0.36961211  0.21073421     0.82200
N257        N  0.17678098  0.33626072  0.20686856    -0.78500
C258        C  0.18837525  0.31337645  0.24225926     0.82300
N259        N  0.17181122  0.32379184  0.28097181    -0.80200
C260        C  0.35170636  0.27026695  0.11952295     0.79700
N261        N  0.36463619  0.23021175  0.10791654    -0.78600
C262        C  0.35114736  0.19442973  0.12961197     0.82200
N263        N  0.32430603  0.19853205  0.16366273    -0.78500
C264        C  0.30988430  0.23813392  0.17510411     0.82300
N265        N  0.32345587  0.27393643  0.15280659    -0.80200
C266        C  0.78725444  0.28966292  0.74956376     0.79700
N267        N  0.75672955  0.28812966  0.78058317    -0.78600
C268        C  0.72327236  0.25929008  0.77820022     0.82200
N269        N  0.72015495  0.23201987  0.74414922    -0.78500
C270        C  0.75070240  0.23379504  0.71270650     0.82300
N271        N  0.78411737  0.26240024  0.71592213    -0.80200
C272        C  0.88022401  0.35614583  0.71462720     0.79700
N273        N  0.89139580  0.37740409  0.75093567    -0.78600
C274        C  0.86841830  0.37061703  0.78769338     0.82200
N275        N  0.83411339  0.34235192  0.78749714    -0.78500
C276        C  0.82338613  0.32083410  0.75116795     0.82300
N277        N  0.84634748  0.32818050  0.71508985    -0.80200
C278        C  0.64953589  0.21568743  0.86147120     0.79700
N279        N  0.64071069  0.25219186  0.88340866    -0.78600
C280        C  0.65715736  0.29118605  0.87120064     0.82200
N281        N  0.68343142  0.29319907  0.83641051    -0.78500
C282        C  0.69218449  0.25693306  0.81366323     0.82300
N283        N  0.67488521  0.21823286  0.82605294    -0.80200
C284        C  0.71126559  0.17370334  0.61746515     0.79700
N285        N  0.74879650  0.15587500  0.60379865    -0.78600
C286        C  0.78646924  0.16242815  0.62515222     0.82200
N287        N  0.78653436  0.18782522  0.66038599    -0.78500
C288        C  0.74908573  0.20494420  0.67532366     0.82300
N289        N  0.71138118  0.19753271  0.65398198    -0.80200
C290        C  0.76095838  0.76951347  0.28353026     0.79700
N291        N  0.72965524  0.77112087  0.25287958    -0.78600
C292        C  0.72701403  0.73915213  0.22304994     0.82200
N293        N  0.75514756  0.70606420  0.22448084    -0.78500
C294        C  0.78589294  0.70427545  0.25479950     0.82300
N295        N  0.78876771  0.73600576  0.28426850    -0.80200
C296        C  0.73623187  0.84996413  0.36763095     0.79700
N297        N  0.77688762  0.86273112  0.37843811    -0.78600
C298        C  0.81201033  0.84634767  0.35880251     0.82200
N299        N  0.80664423  0.81617034  0.32793834    -0.78500
C300        C  0.76607152  0.80358513  0.31586073     0.82300
N301        N  0.73096357  0.82039702  0.33585834    -0.80200
C302        C  0.85197567  0.61256250  0.21933692     0.79700
N303        N  0.86861229  0.59930278  0.25723122    -0.78600
C304        C  0.85906017  0.62022906  0.29405002     0.82200
N305        N  0.83296619  0.65495952  0.29300179    -0.78500
C306        C  0.81539696  0.66786130  0.25566695     0.82300
N307        N  0.82488003  0.64664042  0.21905669    -0.80200
C308        C  0.64631114  0.76900420  0.13995137     0.79700
N309        N  0.67569323  0.77317786  0.17226259    -0.78600
C310        C  0.69314928  0.73712757  0.19014488     0.82200
N311        N  0.68130046  0.69736531  0.17560629    -0.78500
C312        C  0.65163098  0.69304061  0.14440967     0.82300
N313        N  0.63438547  0.72878620  0.12690919    -0.80200
C314        C  0.22626853  0.73883866  0.28532450     0.79700
N315        N  0.23427173  0.70577209  0.25839004    -0.78600
C316        C  0.27060268  0.70519897  0.23434472     0.82200
N317        N  0.29941877  0.73868095  0.23687363    -0.78500
C318        C  0.29195796  0.77223840  0.26392787     0.82300
N319        N  0.25514944  0.77236263  0.28807016    -0.80200
C320        C  0.36477714  0.86368022  0.29561214     0.79700
N321        N  0.37350614  0.88083857  0.25691777    -0.78600
C322        C  0.35622491  0.86398192  0.22109838     0.82200
N323        N  0.33076543  0.82804566  0.22378890    -0.78500
C324        C  0.32079645  0.81054834  0.26248441     0.82300
N325        N  0.33738853  0.82874278  0.29875589    -0.80200
C326        C  0.12759336  0.69446195  0.33618937     0.79700
N327        N  0.10963333  0.73035563  0.35263731    -0.78600
C328        C  0.12919503  0.76977217  0.34877599     0.82200
N329        N  0.16775684  0.77298530  0.32741123    -0.78500
C330        C  0.18587791  0.73698849  0.31033213     0.82300
N331        N  0.16583309  0.69792568  0.31531937    -0.80200
C332        C  0.31959463  0.61604976  0.17291524     0.79700
N333        N  0.28424730  0.59980048  0.15280216    -0.78600
C334        C  0.24495474  0.61791235  0.15772891     0.82200
N335        N  0.24121854  0.65220583  0.18434553    -0.78500
C336        C  0.27647021  0.66918337  0.20448404     0.82300
N337        N  0.31598387  0.65150731  0.19812715    -0.80200
O338        O  0.96492400  0.90977069  0.48180574    -0.80600
O339        O  0.04036498  0.09081643  0.48634771    -0.80600
O340        O  0.89927355  0.02799229  0.47055770    -0.80600
O341        O  0.06469997  0.95367020  0.43601698    -0.80600
O342        O  0.96087503  0.06430680  0.46358989    -0.80700
O343        O  0.05153829  0.90283535  0.48403073    -0.80600
O344        O  0.05368590  0.04256328  0.43837779    -0.80600
O345        O  0.95659636  0.96723935  0.44109768    -0.80700
C346        C  0.95172676  0.92693115  0.44716885     1.09100
C347        C  0.05693623  0.08109751  0.45074568     1.09000
C348        C  0.92032049  0.05976237  0.45481588     1.09100
C349        C  0.06325491  0.91407484  0.44667923     1.09000
O350        O  0.05595882  0.94115464  0.56696741    -0.80600
O351        O  0.97070626  0.10196481  0.54080237    -0.80700
O352        O  0.91637606  0.95807949  0.52247739    -0.80600
O353        O  0.09349662  0.04474811  0.52382812    -0.80600
O354        O  0.03659521  0.04814165  0.56655009    -0.80700
O355        O  0.96730793  0.94751496  0.56814949    -0.80600
O356        O  0.10468343  0.95775722  0.51781068    -0.80600
O357        O  0.93721741  0.03909733  0.54714606    -0.80700
Co358      Co  0.00987519  0.92940982  0.52514057     1.51500
Co359      Co  0.99777502  0.05189898  0.51751663     1.51700
Co360      Co  0.95147215  0.00392301  0.49190153     1.51600
Co361      Co  0.07513291  0.99946561  0.47945964     1.51500
O362        O  0.01426665  0.99100716  0.50331216    -1.42600
C363        C  0.09477267  0.94213349  0.55407073     1.09000
C364        C  0.93886856  0.08004622  0.55516738     1.09100
C365        C  0.92847005  0.94194748  0.55745097     1.09000
C366        C  0.07565296  0.05819027  0.55823433     1.09000
C367        C  0.07720240  0.87948644  0.41696203    -0.05900
C368        C  0.05834621  0.83823657  0.42128581    -0.33400
C369        C  0.07372852  0.80295212  0.39837594     0.35900
C370        C  0.10956900  0.80795103  0.37035614    -0.06300
C371        C  0.12752810  0.84970850  0.36484715    -0.33300
C372        C  0.11167945  0.88520019  0.38783220     0.35800
H373        H  0.03193085  0.83295640  0.44355702     0.16100
O374        O  0.05462831  0.76332681  0.40567467    -0.60800
H375        H  0.15475790  0.85481100  0.34352457     0.16200
O376        O  0.13151141  0.92480752  0.38304451    -0.60900
H377        H  0.15652717  0.92443642  0.40270008     0.43200
H378        H  0.02879098  0.76245060  0.38708248     0.43100
C379        C  0.85523607  0.86147026  0.37232126    -0.05900
C380        C  0.87717460  0.83868709  0.40393577    -0.33400
C381        C  0.91160204  0.85807550  0.42617144     0.35900
C382        C  0.92427253  0.90128971  0.41713814    -0.06300
C383        C  0.90471198  0.92230504  0.38251721    -0.33300
C384        C  0.87035210  0.90281257  0.36043513     0.35800
H385        H  0.86557568  0.80693434  0.41358187     0.16100
O386        O  0.92966345  0.83581947  0.45926802    -0.60800
H387        H  0.91388018  0.95520973  0.37438554     0.16200
O388        O  0.84936995  0.92593020  0.32969746    -0.60900
H389        H  0.85981554  0.91423283  0.30221146     0.43200
H390        H  0.95260858  0.81826102  0.44606466     0.43100
C391        C  0.90232747  0.10049717  0.57866980    -0.05900
C392        C  0.86268723  0.07773600  0.58169601    -0.33400
C393        C  0.82521352  0.09751182  0.59689730     0.35900
C394        C  0.82665215  0.14072270  0.61073875    -0.06300
C395        C  0.86671714  0.16288952  0.61034154    -0.33300
C396        C  0.90422056  0.14336873  0.59398813     0.35800
H397        H  0.86008252  0.04471784  0.57059762     0.16100
O398        O  0.78739200  0.07385091  0.59903341    -0.60800
H399        H  0.86870407  0.19593707  0.62145411     0.16200
O400        O  0.94248406  0.16635124  0.59349184    -0.60900
H401        H  0.94010936  0.18685833  0.56932570     0.43200
H402        H  0.77632982  0.07298520  0.56943838     0.43100
C403        C  0.08780996  0.11081408  0.42898382    -0.05900
C404        C  0.11897690  0.13246235  0.45369053    -0.33400
C405        C  0.15601633  0.15081220  0.43470370     0.35900
C406        C  0.16143052  0.14951965  0.39007016    -0.06300
C407        C  0.12815813  0.13174433  0.36506165    -0.33300
C408        C  0.09204222  0.11151755  0.38426854     0.35800
H409        H  0.11652216  0.13202558  0.48814600     0.16100
O410        O  0.18737473  0.16889165  0.46013495    -0.60800
H411        H  0.13176170  0.13042928  0.33075004     0.16200
O412        O  0.06175438  0.09133900  0.35917195    -0.60900
H413        H  0.07387031  0.06264781  0.35262758     0.43200
H414        H  0.20290811  0.14417340  0.47271426     0.43100
C415        C  0.90972174  0.43284800  0.90470753    -0.05900
C416        C  0.86553401  0.42486663  0.89731517    -0.33400
C417        C  0.85144947  0.40466290  0.85953833     0.35900
C418        C  0.88161476  0.39300855  0.82776373    -0.06300
C419        C  0.92554742  0.40239186  0.83467253    -0.33300
C420        C  0.93965403  0.42173714  0.87253276     0.35800
H421        H  0.84186075  0.43365037  0.92116304     0.16100
O422        O  0.80800592  0.39789782  0.85339046    -0.60800
H423        H  0.94939952  0.39397241  0.81084780     0.16200
O424        O  0.98302458  0.42984224  0.87749594    -0.60900
H425        H  0.98792319  0.45950637  0.86632279     0.43200
H426        H  0.80072786  0.37113939  0.86946451     0.43100
C427        C  0.86661093  0.59248794  0.17858530    -0.05900
C428        C  0.90011347  0.56243263  0.17991329    -0.33400
C429        C  0.91984422  0.54802058  0.14260877     0.35900
C430        C  0.90576458  0.56266124  0.10253791    -0.06300
C431        C  0.87023559  0.59002250  0.10054451    -0.33300
C432        C  0.85060708  0.60504582  0.13816425     0.35800
H433        H  0.91284367  0.55147703  0.21008173     0.16100
O434        O  0.95389131  0.52026585  0.14562965    -0.60800
H435        H  0.85941296  0.60198160  0.06998204     0.16200
O436        O  0.81756298  0.63384904  0.13492270    -0.60900
H437        H  0.79339700  0.61750186  0.12162251     0.43200
H438        H  0.97911655  0.53848934  0.15394115     0.43100
C439        C  0.09622785  0.43755196  0.10136746    -0.05900
C440        C  0.07313244  0.43342935  0.13982601    -0.33400
C441        C  0.08982959  0.41148652  0.17476508     0.35900
C442        C  0.13130100  0.39306942  0.17282299    -0.06300
C443        C  0.15523700  0.39773408  0.13471659    -0.33300
C444        C  0.13830505  0.42029155  0.09938916     0.35800
H445        H  0.04096229  0.44645904  0.14283423     0.16100
O446        O  0.06428316  0.40727152  0.21041457    -0.60800
H447        H  0.18722908  0.38418653  0.13237690     0.16200
O448        O  0.16267721  0.42410328  0.06295847    -0.60900
H449        H  0.18272041  0.44881464  0.06815123     0.43200
H450        H  0.04884887  0.37918673  0.20708321     0.43100
C451        C  0.13525087  0.57731934  0.08134972    -0.05900
C452        C  0.17689328  0.56251462  0.07199390    -0.33400
C453        C  0.21253604  0.57469939  0.09673699     0.35900
C454        C  0.20722277  0.60219142  0.13226553    -0.06300
C455        C  0.16535200  0.61640490  0.14206569    -0.33300
C456        C  0.12969045  0.60435089  0.11701922     0.35800
H457        H  0.18211447  0.54156738  0.04492976     0.16100
O458        O  0.25246328  0.55994004  0.08515396    -0.60800
H459        H  0.16014071  0.63750914  0.16899190     0.16200
O460        O  0.08976917  0.61998662  0.12732850    -0.60900
H461        H  0.08776801  0.64781506  0.11181319     0.43200
H462        H  0.26453493  0.58215862  0.06542317     0.43100
C463        C  0.83823749  0.36694834  0.12811845    -0.05900
C464        C  0.87038448  0.34070962  0.11085428    -0.33400
C465        C  0.90507831  0.35899811  0.08764715     0.35900
C466        C  0.90832142  0.40425634  0.08227771    -0.06300
C467        C  0.87765893  0.43036150  0.10247327    -0.33300
C468        C  0.84264082  0.41206952  0.12466546     0.35800
H469        H  0.86708372  0.30589346  0.11289511     0.16100
O470        O  0.93437545  0.33221147  0.06883302    -0.60800
H471        H  0.87953907  0.46518508  0.09949153     0.16200
O472        O  0.81231364  0.43854904  0.14240298    -0.60900
H473        H  0.79511553  0.44941585  0.11814387     0.43200
H474        H  0.92115789  0.32368535  0.04131623     0.43100
C475        C  0.85955135  0.16488419  0.39028475    -0.05900
C476        C  0.90461519  0.16197303  0.39108894    -0.33400
C477        C  0.92456434  0.12603770  0.40851433     0.35900
C478        C  0.89942743  0.09268225  0.42763308    -0.06300
C479        C  0.85407393  0.09435679  0.42452586    -0.33300
C480        C  0.83412104  0.12983354  0.40516221     0.35800
H481        H  0.92463512  0.18797550  0.37824869     0.16100
O482        O  0.96886191  0.12482318  0.40789283    -0.60800
H483        H  0.83400871  0.06901989  0.43846917     0.16200
O484        O  0.78988297  0.13119699  0.40351556    -0.60900
H485        H  0.78207638  0.11777426  0.37589497     0.43200
H486        H  0.97623645  0.10906727  0.38146061     0.43100
C487        C  0.07672809  0.61716028  0.90774689    -0.05900
C488        C  0.05614058  0.61082070  0.86876571    -0.33400
C489        C  0.07638112  0.62280280  0.83079617     0.35900
C490        C  0.11792177  0.64262557  0.83139974    -0.06300
C491        C  0.13679936  0.65261677  0.87096185    -0.33300
C492        C  0.11663458  0.63950007  0.90909601     0.35800
H493        H  0.02559724  0.59322392  0.86753168     0.16100
O494        O  0.05563034  0.61357400  0.79328446    -0.60800
H495        H  0.16845229  0.66799389  0.87233483     0.16200
O496        O  0.13769156  0.64552048  0.94704453    -0.60900
H497        H  0.15554415  0.61948039  0.95088054     0.43200
H498        H  0.06018770  0.58232594  0.78840226     0.43100
C499        C  0.12904810  0.92049793  0.57826139    -0.05900
C500        C  0.17172943  0.93571878  0.57365062    -0.33400
C501        C  0.20634099  0.91131842  0.58786757     0.35900
C502        C  0.19877135  0.87038720  0.60653031    -0.06300
C503        C  0.15596408  0.85623067  0.61354824    -0.33300
C504        C  0.12115558  0.88105613  0.59970063     0.35800
H505        H  0.17838757  0.96618658  0.55767348     0.16100
O506        O  0.24751132  0.92768366  0.58277785    -0.60800
H507        H  0.14948593  0.82512016  0.62829546     0.16200
O508        O  0.07990729  0.86474706  0.60410637    -0.60900
H509        H  0.06965398  0.87558595  0.63200841     0.43200
H510        H  0.25449410  0.94190432  0.61022298     0.43100
C511        C  0.58194163  0.87497516  0.07682415    -0.05900
C512        C  0.60560021  0.88266629  0.11434324    -0.33400
C513        C  0.62735633  0.84902241  0.13517373     0.35900
C514        C  0.62673787  0.80694662  0.11796349    -0.06300
C515        C  0.60476492  0.80013358  0.07921515    -0.33300
C516        C  0.58239926  0.83330848  0.05904506     0.35800
H517        H  0.60542059  0.91436776  0.12880493     0.16100
O518        O  0.64756653  0.85742285  0.17309413    -0.60800
H519        H  0.60398430  0.76851068  0.06457885     0.16200
O520        O  0.56019057  0.82426304  0.02231613    -0.60900
H521        H  0.58136141  0.82924908  0.99894287     0.43200
H522        H  0.62505758  0.85246588  0.19524664     0.43100
C523        C  0.43668222  0.91080815  0.88684662    -0.05900
C524        C  0.46409028  0.88075979  0.86777988    -0.33400
C525        C  0.44730292  0.84276007  0.85021957     0.35900
C526        C  0.40233438  0.83553606  0.84937199    -0.06300
C527        C  0.37462737  0.86723540  0.86508910    -0.33300
C528        C  0.39158811  0.90420940  0.88493166     0.35800
H529        H  0.49882476  0.88501225  0.86960685     0.16100
O530        O  0.47516891  0.81177027  0.83626526    -0.60800
H531        H  0.33993617  0.86179198  0.86490480     0.16200
O532        O  0.36404201  0.93296240  0.90351545    -0.60900
H533        H  0.35603640  0.91996560  0.93143129     0.43200
H534        H  0.47908504  0.81749914  0.80539246     0.43100
C535        C  0.56830042  0.10560160  0.08651704    -0.05900
C536        C  0.54059619  0.12093048  0.11831807    -0.33400
C537        C  0.55733092  0.13704583  0.15638925     0.35900
C538        C  0.60230351  0.13975593  0.16207105    -0.06300
C539        C  0.63000704  0.12939746  0.12812670    -0.33300
C540        C  0.61318089  0.11180562  0.09052624     0.35800
H541        H  0.50589648  0.11677630  0.11534583     0.16100
O542        O  0.52960010  0.14896080  0.18834523    -0.60800
H543        H  0.66475346  0.13193333  0.13194161     0.16200
O544        O  0.64075746  0.09862766  0.05898741    -0.60900
H545        H  0.64522954  0.12433355  0.04048716     0.43200
H546        H  0.51726805  0.12155641  0.19985132     0.43100
C547        C  0.36742428  0.88424820  0.17993460    -0.05900
C548        C  0.37492106  0.85864196  0.14389620    -0.33400
C549        C  0.39581087  0.87642672  0.10808243     0.35900
C550        C  0.40873572  0.92019718  0.10828014    -0.06300
C551        C  0.39729229  0.94655842  0.14234898    -0.33300
C552        C  0.37658704  0.92898789  0.17799971     0.35800
H553        H  0.36780907  0.82429104  0.14474688     0.16100
O554        O  0.40662105  0.85015185  0.07469941    -0.60800
H555        H  0.40665067  0.98043662  0.14233854     0.16200
O556        O  0.36654377  0.95557802  0.21140035    -0.60900
H557        H  0.39444836  0.96226809  0.22558782     0.43200
H558        H  0.43485919  0.83769298  0.08251077     0.43100
C559        C  0.40732514  0.07803665  0.08229301    -0.05900
C560        C  0.41186384  0.08926340  0.12550497    -0.33400
C561        C  0.39112643  0.12549771  0.14230759     0.35900
C562        C  0.36603687  0.15162808  0.11569193    -0.06300
C563        C  0.35862893  0.13872060  0.07363487    -0.33300
C564        C  0.37845009  0.10204411  0.05693282     0.35800
H565        H  0.43351350  0.07142630  0.14581372     0.16100
O566        O  0.39873543  0.13724729  0.18369719    -0.60800
H567        H  0.33856953  0.15811220  0.05308464     0.16200
O568        O  0.37072569  0.09118863  0.01525734    -0.60900
H569        H  0.38497784  0.11421114  0.99797890     0.43200
H570        H  0.37704994  0.12074105  0.20077456     0.43100
C571        C  0.63136282  0.17383614  0.87656760    -0.05900
C572        C  0.61784612  0.14216980  0.84732702    -0.33400
C573        C  0.59590230  0.10458984  0.86122706     0.35900
C574        C  0.58807497  0.09784573  0.90510109    -0.06300
C575        C  0.60432150  0.12834100  0.93426441    -0.33300
C576        C  0.62523934  0.16609057  0.92043586     0.35800
H577        H  0.62245817  0.14747971  0.81347686     0.16100
O578        O  0.58114211  0.07555920  0.83156878    -0.60800
H579        H  0.59944104  0.12388952  0.96820147     0.16200
O580        O  0.64000995  0.19505559  0.95023811    -0.60900
H581        H  0.61398173  0.21032931  0.96037341     0.43200
H582        H  0.55228447  0.08604586  0.82309331     0.43100
C583        C  0.09638569  0.09400700  0.58280431    -0.05900
C584        C  0.06966567  0.12647937  0.59911897    -0.33400
C585        C  0.08705567  0.16525559  0.61474926     0.35900
C586        C  0.13213046  0.17180324  0.61615792    -0.06300
C587        C  0.15917823  0.13854779  0.60231712    -0.33300
C588        C  0.14163213  0.10031828  0.58472315     0.35800
H589        H  0.03481833  0.12292855  0.59773235     0.16100
O590        O  0.05960306  0.19642538  0.62918434    -0.60800
H591        H  0.19396420  0.14295559  0.60350371     0.16200
O592        O  0.16891609  0.06941022  0.56956759    -0.60900
H593        H  0.17847593  0.08000825  0.54115589     0.43200
H594        H  0.05015784  0.21204820  0.60330097     0.43100
C595        C  0.37578560  0.13192304  0.83693154    -0.05900
C596        C  0.38973616  0.15863097  0.87024055    -0.33400
C597        C  0.41205262  0.14111608  0.90490278     0.35900
C598        C  0.42037706  0.09637141  0.90616070    -0.06300
C599        C  0.40167247  0.06948044  0.87514480    -0.33300
C600        C  0.37943526  0.08692542  0.84088921     0.35800
H601        H  0.38629758  0.19330808  0.86785537     0.16100
O602        O  0.42724916  0.16823404  0.93608082    -0.60800
H603        H  0.40614534  0.03486380  0.87607378     0.16200
O604        O  0.36358985  0.05983995  0.80998679    -0.60900
H605        H  0.33326456  0.05342856  0.81855179     0.43200
H606        H  0.45478992  0.18049231  0.92472243     0.43100
C607        C  0.14994292  0.35161316  0.88580209    -0.05900
C608        C  0.14099200  0.34238219  0.92871494    -0.33400
C609        C  0.10708072  0.36267021  0.95000028     0.35900
C610        C  0.08266031  0.39402246  0.92867169    -0.06300
C611        C  0.08920786  0.40022574  0.88464195    -0.33300
C612        C  0.12201576  0.37841679  0.86298479     0.35800
H613        H  0.16212200  0.32144852  0.94652047     0.16100
O614        O  0.10055692  0.35427282  0.99248872    -0.60800
H615        H  0.07057980  0.42388479  0.86748641     0.16200
O616        O  0.12941388  0.38710594  0.82070196    -0.60900
H617        H  0.11221703  0.36501000  0.80512772     0.43200
H618        H  0.12228517  0.37237220  0.00755447     0.43100
C619        C  0.91187970  0.60335118  0.92786394    -0.05900
C620        C  0.88455716  0.63217675  0.94933765    -0.33400
C621        C  0.84596016  0.64641053  0.93072795     0.35900
C622        C  0.83448023  0.63310009  0.88938503    -0.06300
C623        C  0.86246305  0.60593735  0.86707574    -0.33300
C624        C  0.90047666  0.59067253  0.88606191     0.35800
H625        H  0.89193324  0.64204554  0.98161101     0.16100
O626        O  0.81970799  0.67350848  0.95320392    -0.60800
H627        H  0.85401393  0.59522893  0.83531332     0.16200
O628        O  0.92541489  0.56213279  0.86393297    -0.60900
H629        H  0.94598924  0.58035115  0.84722553     0.43200
H630        H  0.79867804  0.65427195  0.96821512     0.43100
C631        C  0.86254723  0.83835228  0.62198017    -0.05900
C632        C  0.84776176  0.85204900  0.58217902    -0.33400
C633        C  0.86643607  0.88824700  0.56205754     0.35900
C634        C  0.90091736  0.91090066  0.58172778    -0.06300
C635        C  0.91377842  0.89836784  0.62284015    -0.33300
C636        C  0.89493716  0.86227028  0.64287104     0.35800
H637        H  0.82301008  0.83344666  0.56577662     0.16100
O638        O  0.85230590  0.89966908  0.52228749    -0.60800
H639        H  0.94018985  0.91515158  0.63859184     0.16200
O640        O  0.91009364  0.84911085  0.68173806    -0.60900
H641        H  0.93657659  0.83263208  0.67536472     0.43200
H642        H  0.86456556  0.87802800  0.50263475     0.43100
C643        C  0.62711167  0.86876192  0.84126734    -0.05900
C644        C  0.64293466  0.90842384  0.85630755    -0.33400
C645        C  0.62626656  0.92633196  0.89377989     0.35900
C646        C  0.59268786  0.90459979  0.91624739    -0.06300
C647        C  0.58031331  0.86273030  0.90308703    -0.33300
C648        C  0.59724486  0.84489768  0.86584368     0.35800
H649        H  0.66707301  0.92633226  0.83807654     0.16100
O650        O  0.64176816  0.96577220  0.90705895    -0.60800
H651        H  0.55498376  0.84494318  0.91978803     0.16200
O652        O  0.58182281  0.80568185  0.85190789    -0.60900
H653        H  0.60034682  0.78399697  0.86581562     0.43200
H654        H  0.62878352  0.98722023  0.88759292     0.43100
C655        C  0.37093154  0.30934581  0.09764092    -0.05900
C656        C  0.34825567  0.34837712  0.09467499    -0.33400
C657        C  0.36732684  0.38575325  0.07574009     0.35900
C658        C  0.41017483  0.38471682  0.05982281    -0.06300
C659        C  0.43198242  0.34519026  0.06180081    -0.33300
C660        C  0.41301356  0.30816372  0.08007695     0.35800
H661        H  0.31561360  0.35001154  0.10713410     0.16100
O662        O  0.34377755  0.42282940  0.07257263    -0.60800
H663        H  0.46479431  0.34287430  0.04990883     0.16200
O664        O  0.43730891  0.27159419  0.08288935    -0.60900
H665        H  0.43559685  0.25808893  0.05432453     0.43200
H666        H  0.33418001  0.42975619  0.10191324     0.43100
C667        C  0.64381183  0.33081603  0.89458011    -0.05900
C668        C  0.61390884  0.32634575  0.92829810    -0.33400
C669        C  0.59506335  0.36231063  0.94689895     0.35900
C670        C  0.60589192  0.40402730  0.93229880    -0.06300
C671        C  0.63848785  0.40928837  0.90150448    -0.33300
C672        C  0.65742045  0.37302531  0.88247662     0.35800
H673        H  0.60334046  0.29472771  0.93929299     0.16100
O674        O  0.56413012  0.35625686  0.97790903    -0.60800
H675        H  0.64725835  0.44133903  0.89020844     0.16200
O676        O  0.68817289  0.37938434  0.85141213    -0.60900
H677        H  0.67175457  0.38424365  0.82480516     0.43200
H678        H  0.58028662  0.35577110  0.00511161     0.43100
C679        C  0.60741271  0.40516866  0.08791212    -0.05900
C680        C  0.60454734  0.38134470  0.12586218    -0.33400
C681        C  0.64073813  0.36012716  0.14187636     0.35900
C682        C  0.68070619  0.36282849  0.11986987    -0.06300
C683        C  0.68304913  0.38565485  0.08140668    -0.33300
C684        C  0.64713299  0.40671059  0.06539890     0.35800
H685        H  0.57446148  0.37989138  0.14363739     0.16100
O686        O  0.63686232  0.33819385  0.17974102    -0.60800
H687        H  0.71328187  0.38827844  0.06394360     0.16200
O688        O  0.65231599  0.43147454  0.02936013    -0.60900
H689        H  0.65715640  0.41073724  0.00589433     0.43200
H690        H  0.64573297  0.35924978  0.20190918     0.43100
C691        C  0.59884269  0.58622334  0.92203183    -0.05900
C692        C  0.60359226  0.59151372  0.87777063    -0.33400
C693        C  0.64069450  0.61167693  0.86036830     0.35900
C694        C  0.67461474  0.62570761  0.88722240    -0.06300
C695        C  0.66898620  0.62250768  0.93130644    -0.33300
C696        C  0.63141939  0.60363575  0.94885060     0.35800
H697        H  0.57901618  0.57889846  0.85648161     0.16100
O698        O  0.64412563  0.61596892  0.81698489    -0.60800
H699        H  0.69412086  0.63431017  0.95243080     0.16200
O700        O  0.62754148  0.60140221  0.99232759    -0.60900
H701        H  0.65275014  0.58475686  0.00222948     0.43200
H702        H  0.65721009  0.58875874  0.80702354     0.43100
C703        C  0.63656764  0.65012352  0.13015948    -0.05900
C704        C  0.59207623  0.64248537  0.12709968    -0.33400
C705        C  0.57592292  0.60481083  0.10848751     0.35900
C706        C  0.60445076  0.57419973  0.09121791    -0.06300
C707        C  0.64920469  0.58070364  0.09647566    -0.33300
C708        C  0.66528801  0.61804543  0.11666582     0.35800
H709        H  0.56958341  0.66647192  0.13829104     0.16100
O710        O  0.53200628  0.59946826  0.10557262    -0.60800
H711        H  0.67171207  0.55732854  0.08415089     0.16200
O712        O  0.70903549  0.62412320  0.12059072    -0.60900
H713        H  0.71671919  0.60896130  0.14731889     0.43200
H714        H  0.52398576  0.61418620  0.07871571     0.43100
C715        C  0.40026528  0.67910857  0.86853141    -0.05900
C716        C  0.40164133  0.63962764  0.84677499    -0.33400
C717        C  0.41958908  0.60306104  0.86587785     0.35900
C718        C  0.43533782  0.60525330  0.90800721    -0.06300
C719        C  0.43401396  0.64493969  0.92951870    -0.33300
C720        C  0.41704432  0.68159105  0.91013953     0.35800
H721        H  0.38925352  0.63720897  0.81462574     0.16100
O722        O  0.42000617  0.56507598  0.84358984    -0.60800
H723        H  0.44579173  0.64762478  0.96187339     0.16200
O724        O  0.41495742  0.71915080  0.93308209    -0.60900
H725        H  0.44452346  0.73196299  0.93173266     0.43200
H726        H  0.44686310  0.56649630  0.82623287     0.43100
C727        C  0.36176950  0.59714017  0.16320462    -0.05900
C728        C  0.36799664  0.55290355  0.17042322    -0.33400
C729        C  0.40215512  0.53132907  0.15061605     0.35900
C730        C  0.42959969  0.55392554  0.12211467    -0.06300
C731        C  0.42539272  0.59895772  0.11809720    -0.33300
C732        C  0.39203237  0.62059314  0.13866769     0.35800
H733        H  0.34472179  0.53453320  0.18927993     0.16100
O734        O  0.40608705  0.48770080  0.15655674    -0.60800
H735        H  0.44588195  0.61706514  0.09618780     0.16200
O736        O  0.38606729  0.66351980  0.13006496    -0.60900
H737        H  0.39856134  0.67908929  0.15478101     0.43200
H738        H  0.38652445  0.47421209  0.13535983     0.43100
C739        C  0.30638093  0.37415028  0.89272254    -0.05900
C740        C  0.29927828  0.40580867  0.92390207    -0.33400
C741        C  0.33337401  0.43099886  0.93986502     0.35900
C742        C  0.37587901  0.42493517  0.92480109    -0.06300
C743        C  0.38334074  0.39235250  0.89478465    -0.33300
C744        C  0.34925909  0.36686124  0.87905730     0.35800
H745        H  0.26696646  0.41182957  0.93566320     0.16100
O746        O  0.32477503  0.46078242  0.97092661    -0.60800
H747        H  0.41573934  0.38679841  0.88298373     0.16200
O748        O  0.35843164  0.33540195  0.84989236    -0.60900
H749        H  0.36527820  0.30949929  0.86708284     0.43200
H750        H  0.31263798  0.48591404  0.95570539     0.43100
C751        C  0.12833908  0.37005704  0.32750737    -0.05900
C752        C  0.12799181  0.41386871  0.33772462    -0.33400
C753        C  0.10786189  0.42818013  0.37482362     0.35900
C754        C  0.08646430  0.39850673  0.40242913    -0.06300
C755        C  0.08975279  0.35414359  0.39388321    -0.33300
C756        C  0.11094685  0.33979650  0.35685575     0.35800
H757        H  0.14261824  0.43742195  0.31625723     0.16100
O758        O  0.10876418  0.47155764  0.38336582    -0.60800
H759        H  0.07390314  0.33070117  0.41457669     0.16200
O760        O  0.11132417  0.29649413  0.34799415    -0.60900
H761        H  0.13758540  0.28555516  0.36216457     0.43200
H762        H  0.08938822  0.48473051  0.36202033     0.43100
C763        C  0.91371018  0.57695221  0.41228526    -0.05900
C764        C  0.89177105  0.54781260  0.38521367    -0.33400
C765        C  0.87418805  0.56153634  0.34663111     0.35900
C766        C  0.87670941  0.60532949  0.33503104    -0.06300
C767        C  0.89609026  0.63503229  0.36302287    -0.33300
C768        C  0.91538253  0.62104606  0.40092611     0.35800
H769        H  0.89038415  0.51363344  0.39257041     0.16100
O770        O  0.85539076  0.53166431  0.32005713    -0.60800
H771        H  0.89796643  0.66895243  0.35458172     0.16200
O772        O  0.93634399  0.65060644  0.42621476    -0.60900
H773        H  0.96413568  0.65713552  0.41149672     0.43200
H774        H  0.82419182  0.53162826  0.32744316     0.43100
C775        C  0.09322685  0.56859034  0.61261268    -0.05900
C776        C  0.11955214  0.60509128  0.60465785    -0.33400
C777        C  0.14081755  0.62615976  0.63828889     0.35900
C778        C  0.13583610  0.61039188  0.68031295    -0.06300
C779        C  0.11297142  0.57157009  0.68715533    -0.33300
C780        C  0.09157385  0.55095482  0.65393246     0.35800
H781        H  0.12112551  0.61909954  0.57301524     0.16100
O782        O  0.16311513  0.66390794  0.63015906    -0.60800
H783        H  0.10996199  0.55791798  0.71887090     0.16200
O784        O  0.06793912  0.51411117  0.66244022    -0.60900
H785        H  0.04132743  0.52382753  0.67705254     0.43200
H786        H  0.19319494  0.65508616  0.62411776     0.43100
C787        C  0.93440898  0.39081204  0.59301382    -0.05900
C788        C  0.89185924  0.40167909  0.60399656    -0.33400
C789        C  0.87440144  0.39028596  0.64354348     0.35900
C790        C  0.89945309  0.36777702  0.67319634    -0.06300
C791        C  0.94097904  0.35436625  0.66164557    -0.33300
C792        C  0.95835801  0.36522149  0.62146336     0.35800
H793        H  0.87273434  0.42110752  0.58261750     0.16100
O794        O  0.83304384  0.40234027  0.65342040    -0.60800
H795        H  0.95998559  0.33581116  0.68384589     0.16200
O796        O  0.99968248  0.35325518  0.61165143    -0.60900
H797        H  0.99670809  0.32391498  0.59933728     0.43200
H798        H  0.83634927  0.42851575  0.67130468     0.43100
C799        C  0.09278521  0.40650838  0.58451757    -0.05900
C800        C  0.11150311  0.37622507  0.55685949    -0.33400
C801        C  0.12998006  0.33844819  0.57243286     0.35900
C802        C  0.13135656  0.33064190  0.61650353    -0.06300
C803        C  0.11512183  0.36178950  0.64448245    -0.33300
C804        C  0.09492256  0.39891118  0.62881372     0.35800
H805        H  0.10987390  0.38051723  0.52265636     0.16100
O806        O  0.14589251  0.30888849  0.54418504    -0.60800
H807        H  0.11612051  0.35627520  0.67855992     0.16200
O808        O  0.07672994  0.42695792  0.65707867    -0.60900
H809        H  0.04843957  0.41366800  0.66502690     0.43200
H810        H  0.17546841  0.31944769  0.53699852     0.43100
C811        C  0.86521764  0.32250682  0.38230506    -0.05900
C812        C  0.87098794  0.32991194  0.42580451    -0.33400
C813        C  0.89404451  0.36607440  0.43999425     0.35900
C814        C  0.91382536  0.39483210  0.41034057    -0.06300
C815        C  0.90545540  0.38901408  0.36674642    -0.33300
C816        C  0.88070661  0.35344906  0.35268841     0.35800
H817        H  0.85803404  0.30711771  0.44900081     0.16100
O818        O  0.89834518  0.37182362  0.48308186    -0.60800
H819        H  0.91964934  0.41088145  0.34341205     0.16200
O820        O  0.87478865  0.34749969  0.30983242    -0.60900
H821        H  0.84666588  0.36098144  0.30344323     0.43200
H822        H  0.87660880  0.39371870  0.49076445     0.43100
C823        C  0.87507030  0.68216119  0.61317055    -0.05900
C824        C  0.90459295  0.69030211  0.57984191    -0.33400
C825        C  0.92660906  0.65708882  0.55989854     0.35900
C826        C  0.92019426  0.61402286  0.57328847    -0.06300
C827        C  0.88887884  0.60508675  0.60494684    -0.33300
C828        C  0.86642525  0.63876937  0.62496201     0.35800
H829        H  0.91168673  0.72293716  0.56918953     0.16100
O830        O  0.95575641  0.66744337  0.52823011    -0.60800
H831        H  0.88302665  0.57216328  0.61544705     0.16200
O832        O  0.83649321  0.62879248  0.65594943    -0.60900
H833        H  0.85332896  0.62595486  0.68259432     0.43200
H834        H  0.93836034  0.67916919  0.50454099     0.43100
C835        C  0.07105181  0.57834333  0.38625160    -0.05900
C836        C  0.04520311  0.60737415  0.36370452    -0.33400
C837        C  0.06358906  0.64428686  0.34462032     0.35900
C838        C  0.10856023  0.65170726  0.34656085    -0.06300
C839        C  0.13482893  0.62025991  0.36492454    -0.33300
C840        C  0.11632336  0.58437567  0.38572678     0.35800
H841        H  0.01032335  0.60351258  0.36407143     0.16100
O842        O  0.03709015  0.67426458  0.32655846    -0.60800
H843        H  0.16950701  0.62545422  0.36658837     0.16200
O844        O  0.14258808  0.55649997  0.40716179    -0.60900
H845        H  0.14929000  0.57093621  0.43456190     0.43200
H846        H  0.03655094  0.66713965  0.29579703     0.43100
C847        C  0.44096745  0.09155664  0.61462350    -0.05900
C848        C  0.43275369  0.06853875  0.65233065    -0.33400
C849        C  0.41108137  0.08729356  0.68637362     0.35900
C850        C  0.39750394  0.13059651  0.68398161    -0.06300
C851        C  0.40715401  0.15451778  0.64690867    -0.33300
C852        C  0.42880208  0.13531262  0.61234642     0.35800
H853        H  0.44153930  0.03489625  0.65487158     0.16100
O854        O  0.40181506  0.06205625  0.72130488    -0.60800
H855        H  0.39767572  0.18795465  0.64460121     0.16200
O856        O  0.43634302  0.15907546  0.57607069    -0.60900
H857        H  0.41008015  0.15489297  0.55844973     0.43200
H858        H  0.37201498  0.05082368  0.71660737     0.43100
C859        C  0.57645662  0.91517243  0.61287997    -0.05900
C860        C  0.58900732  0.87176164  0.61162321    -0.33400
C861        C  0.60737019  0.85198633  0.64760097     0.35900
C862        C  0.61331777  0.87558924  0.68566540    -0.06300
C863        C  0.59848300  0.91813103  0.68737718    -0.33300
C864        C  0.58053864  0.93791157  0.65160180     0.35800
H865        H  0.58613994  0.85363301  0.58228538     0.16100
O866        O  0.61945132  0.80966818  0.64509740    -0.60800
H867        H  0.60181444  0.93677169  0.71635972     0.14400
O868        O  0.56676287  0.97968228  0.65491705    -0.60900
H869        H  0.59337399  0.99789922  0.65325155     0.43200
H870        H  0.59427944  0.79276687  0.65609631     0.43100
C871        C  0.31809996  0.13575054  0.39457585    -0.05900
C872        C  0.35920161  0.15492231  0.38906251    -0.33400
C873        C  0.39486494  0.14070065  0.41268422     0.35900
C874        C  0.38998884  0.10616937  0.44208888    -0.06300
C875        C  0.34884683  0.08732381  0.44757895    -0.33300
C876        C  0.31342334  0.10144747  0.42426715     0.35800
H877        H  0.36365823  0.18142871  0.36681705     0.16100
O878        O  0.43442185  0.16013958  0.40582676    -0.60800
H879        H  0.34396085  0.06075226  0.46968374     0.16200
O880        O  0.27436474  0.08078170  0.43061852    -0.60900
H881        H  0.27310979  0.05776781  0.40874668     0.43200
H882        H  0.43538291  0.18501049  0.42564023     0.43100
C883        C  0.35028161  0.83277566  0.58853872    -0.05900
C884        C  0.38702261  0.84115059  0.61343869    -0.33400
C885        C  0.42312461  0.86213277  0.59558253     0.35900
C886        C  0.42313168  0.87334936  0.55219299    -0.06300
C887        C  0.38895247  0.85956161  0.52619855    -0.33300
C888        C  0.35234378  0.83966487  0.54420156     0.35800
H889        H  0.38623084  0.83537536  0.64749386     0.16100
O890        O  0.45724164  0.87376165  0.62110864    -0.60800
H891        H  0.38883702  0.86792775  0.49267419     0.16200
O892        O  0.31750746  0.83018532  0.51881448    -0.60900
H893        H  0.32251281  0.80051585  0.50830688     0.43200
H894        H  0.44875800  0.90126671  0.63465824     0.43100
C895        C  0.57609216  0.06359040  0.38846724    -0.05900
C896        C  0.54749619  0.07626099  0.35619938    -0.33400
C897        C  0.56258189  0.09771792  0.31963626     0.35900
C898        C  0.60698391  0.10751976  0.31492910    -0.06300
C899        C  0.63577012  0.09389605  0.34644658    -0.33300
C900        C  0.62081661  0.07191457  0.38279516     0.35800
H901        H  0.51299317  0.07074381  0.35974870     0.16100
O902        O  0.53327174  0.11130782  0.29000494    -0.60800
H903        H  0.67014138  0.10034190  0.34296498     0.16200
O904        O  0.65030568  0.05880629  0.41248364    -0.60900
H905        H  0.65855578  0.08525053  0.42843784     0.43200
H906        H  0.52541228  0.08514240  0.27344811     0.43100
C907        C  0.38647898  0.88373738  0.33277320    -0.05900
C908        C  0.36219843  0.89984222  0.36670435    -0.33400
C909        C  0.38201147  0.92467126  0.39886262     0.35900
C910        C  0.42724939  0.93363507  0.39758198    -0.06300
C911        C  0.45129117  0.91716153  0.36343321    -0.33300
C912        C  0.43131089  0.89287822  0.33121006     0.35800
H913        H  0.32751559  0.89438882  0.36760441     0.16100
O914        O  0.35652953  0.94098118  0.43071247    -0.60800
H915        H  0.48592902  0.92265900  0.36179254     0.16200
O916        O  0.45617012  0.87725801  0.29857188    -0.60900
H917        H  0.46026618  0.90185357  0.27858973     0.43200
H918        H  0.34640417  0.91564572  0.44759144     0.43100
C919        C  0.59705798  0.12929129  0.55182730    -0.05900
C920        C  0.63437950  0.14044497  0.52858544    -0.33400
C921        C  0.67088495  0.15793637  0.54911051     0.35900
C922        C  0.67045139  0.16470274  0.59366456    -0.06300
C923        C  0.63136793  0.15815305  0.61589939    -0.33300
C924        C  0.59514774  0.13984540  0.59546656     0.35800
H925        H  0.63664482  0.13206101  0.49516975     0.16100
O926        O  0.70763503  0.16599181  0.52563770    -0.60800
H927        H  0.62986746  0.16385093  0.64990010     0.16200
O928        O  0.55871646  0.13008501  0.61889700    -0.60900
H929        H  0.56465093  0.10208978  0.63294973     0.43200
H930        H  0.70544535  0.19648896  0.51632338     0.43100
C931        C  0.69836167  0.86730351  0.39149675    -0.05900
C932        C  0.65689855  0.84885754  0.38600249    -0.33400
C933        C  0.62093230  0.86436567  0.40843357     0.35900
C934        C  0.62573766  0.89933020  0.43695169    -0.06300
C935        C  0.66717832  0.91751984  0.44257121    -0.33300
C936        C  0.70308928  0.90189253  0.42059532     0.35800
H937        H  0.65214156  0.82217775  0.36421199     0.16100
O938        O  0.58111140  0.84588057  0.40106085    -0.60800
H939        H  0.67202917  0.94445291  0.46405466     0.16200
O940        O  0.74240645  0.92183818  0.42711207    -0.60900
H941        H  0.75412489  0.90823687  0.45318600     0.43200
H942        H  0.57930221  0.82064237  0.42052874     0.43100
loop_ 
_geom_bond_atom_site_label_1 
_geom_bond_atom_site_label_2 
_geom_bond_distance 
_geom_bond_site_symmetry_2 
_ccdc_geom_bond_type 
O1            C9   1.303       .  A
O1          Co21   2.101   1_565  S
O2           C10   1.306       .  A
O2          Co22   2.110   1_545  S
O3           C11   1.273       .  A
O3          Co23   1.985       .  S
O4           C12   1.263       .  A
O4          Co24   1.957       .  S
O5           C11   1.270       .  A
O5          Co22   2.010       .  S
O6           C12   1.274       .  A
O6          Co21   2.022       .  S
O7           C10   1.270       .  A
O7          Co24   1.881       .  S
O8            C9   1.271       .  A
O8          Co23   1.889       .  S
C9          C934   1.492       .  S
C10         C874   1.490       .  S
C11         C910   1.498       .  S
C12         C895   1.486       .  S
O13          C26   1.252       .  A
O13         Co21   1.968       .  S
O14          C27   1.260       .  A
O14         Co22   1.976       .  S
O15          C28   1.268       .  A
O15         Co23   2.051       .  S
O16          C29   1.264       .  A
O16         Co24   2.031       .  S
O17          C29   1.253       .  A
O17         Co22   1.947   1_545  S
O18          C28   1.249       .  A
O18         Co21   1.937   1_565  S
O19          C26   1.268       .  A
O19         Co24   2.038       .  S
O20          C27   1.263       .  A
O20         Co23   2.004       .  S
Co21         O25   2.075       .  S
Co22         O25   2.073   1_565  S
Co23         O25   1.989   1_565  S
Co24         O25   1.987       .  S
C26         C919   1.479       .  S
C27         C886   1.462       .  S
C28         C859   1.488       .  S
C29         C847   1.484       .  S
O30          C38   1.283       .  A
O30         Co50   2.048   1_655  S
O31          C39   1.269       .  A
O31         Co51   2.037   1_655  S
O32          C40   1.269       .  A
O32         Co52   1.922       .  S
O33          C41   1.266       .  A
O33         Co53   1.986       .  S
O34          C40   1.286       .  A
O34         Co51   2.071   1_655  S
O35          C41   1.270       .  A
O35         Co50   1.999   1_655  S
O36          C39   1.254       .  A
O36         Co53   1.957       .  S
O37          C38   1.266       .  A
O37         Co52   1.953       .  S
C38         C763   1.486       .  S
C39         C787   1.480       .  S
C40         C814   1.485       .  S
C41         C826   1.486       .  S
O42          C55   1.267       .  A
O42         Co50   1.978       .  S
O43          C56   1.272       .  A
O43         Co51   1.928       .  S
O44          C57   1.267       .  A
O44         Co52   2.023   1_455  S
O45          C58   1.284       .  A
O45         Co53   2.058   1_455  S
O46          C58   1.266       .  A
O46         Co51   1.953       .  S
O47          C57   1.258       .  A
O47         Co50   1.973       .  S
O48          C55   1.270       .  A
O48         Co53   1.990   1_455  S
O49          C56   1.287       .  A
O49         Co52   2.070   1_455  S
Co50         O54   2.021       .  S
Co51         O54   2.016       .  S
Co52         O54   2.002   1_655  S
Co53         O54   2.014   1_655  S
C55         C775   1.472       .  S
C56         C754   1.489       .  S
C57         C835   1.478       .  S
C58         C799   1.490       .  S
O59          C67   1.265       .  A
O59         Co79   1.995   1_556  S
O60          C68   1.282       .  A
O60         Co80   2.063       .  S
O61          C69   1.259       .  A
O61         Co81   1.961       .  S
O62          C70   1.270       .  A
O62         Co82   1.953       .  S
O63          C69   1.270       .  A
O63         Co80   2.027   1_556  S
O64          C70   1.291       .  A
O64         Co79   2.078       .  S
O65          C68   1.267       .  A
O65         Co82   1.922       .  S
O66          C67   1.263       .  A
O66         Co81   1.975       .  S
C67         C742   1.482       .  S
C68         C679   1.477       .  S
C69         C670   1.472       .  S
C70         C658   1.506       .  S
O71          C84   1.249       .  A
O71         Co79   1.961       .  S
O72          C85   1.261       .  A
O72         Co80   1.962   1_556  S
O73          C86   1.274       .  A
O73         Co81   2.023       .  S
O74          C87   1.291       .  A
O74         Co82   2.085       .  S
O75          C87   1.271       .  A
O75         Co80   1.913       .  S
O76          C86   1.265       .  A
O76         Co79   1.964   1_556  S
O77          C84   1.261       .  A
O77         Co82   2.021       .  S
O78          C85   1.280       .  A
O78         Co81   2.044       .  S
Co79         O83   2.009   1_554  S
Co80         O83   2.005   1_554  S
Co81         O83   2.036       .  S
Co82         O83   2.022   1_554  S
C84         C730   1.480       .  S
C85         C691   1.493       .  S
C86         C718   1.486       .  S
C87         C706   1.483       .  S
C88         C643   1.466       .  S
C88          N89   1.357       .  A
C88          N93   1.352       .  A
N89          C90   1.361       .  A
C90         C862   1.491       .  S
C90          N91   1.364       .  A
N91          C92   1.363       .  A
C92          C96   1.466       .  S
C92          N93   1.356       .  A
C94         C110   1.468       .  S
C94          N95   1.358       .  A
C94          N99   1.360       .  A
N95          C96   1.355       .  A
C96          N97   1.353       .  A
N97          C98   1.359       .  A
C98         C102   1.462       .  S
C98          N99   1.362       .  A
C100        C823   1.492       .  S
C100        N101   1.363       .  A
C100        N105   1.358       .  A
N101        C102   1.364       .  A
C102        N103   1.359       .  A
N103        C104   1.351       .  A
C104        C631   1.465       .  S
C104        N105   1.350       .  A
C106        C622   1.487       .  S
C106        N107   1.364       .  A
C106        N111   1.363       .  A
N107        C108   1.364       .  A
C108        C694   1.484       .  S
C108        N109   1.354       .  A
N109        C110   1.356       .  A
C110        N111   1.363       .  A
C112        C128   1.471       .  S
C112        N113   1.360       .  A
C112        N117   1.357       .  A
N113        C114   1.363       .  A
C114        C134   1.466       .  S
C114        N115   1.360       .  A
N115        C116   1.356       .  A
C116        C120   1.466       .  S
C116        N117   1.356       .  A
C118        C739   1.489       .  S
C118        N119   1.356       .  A
C118        N123   1.356       .  A
N119        C120   1.357       .  A
C120        N121   1.363       .  A
N121        C122   1.361       .  A
C122        C607   1.472       .  S
C122        N123   1.357       .  A
C124        C595   1.468       .  S
C124        N125   1.349       .  A
C124        N129   1.353       .  A
N125        C126   1.352       .  A
C126        C850   1.488       .  S
C126        N127   1.366       .  A
N127        C128   1.369       .  A
C128        N129   1.362       .  A
C130        C586   1.483       .  S
C130        N131   1.361       .  A
C130        N135   1.360       .  A
N131        C132   1.360       .  A
C132        C802   1.479       .  S
C132        N133   1.357       .  A
N133        C134   1.359       .  A
C134        N135   1.361       .  A
O136        C144   1.263       .  A
O136       Co156   2.006   1_565  S
O137        C145   1.283       .  A
O137       Co157   2.048   1_545  S
O138        C146   1.260       .  A
O138       Co158   1.960   1_554  S
O139        C147   1.264       .  A
O139       Co159   1.903       .  S
O140        C146   1.270       .  A
O140       Co157   1.999       .  S
O141        C147   1.292       .  A
O141       Co156   2.094       .  S
O142        C145   1.264       .  A
O142       Co159   1.959   1_554  S
O143        C144   1.256       .  A
O143       Co158   1.975       .  S
C144        C523   1.470       .  S
C145        C559   1.492       .  S
C146        C550   1.459       .  S
C147        C598   1.480       .  S
O148        C161   1.269       .  A
O148       Co156   1.916       .  S
O149        C162   1.269       .  A
O149       Co157   1.983       .  S
O150        C163   1.280       .  A
O150       Co158   2.023       .  S
O151        C164   1.261       .  A
O151       Co159   1.997   1_554  S
O152        C164   1.259       .  A
O152       Co157   1.983   1_545  S
O153        C163   1.270       .  A
O153       Co156   1.967   1_565  S
O154        C161   1.290       .  A
O154       Co159   2.079       .  S
O155        C162   1.275       .  A
O155       Co158   2.018   1_554  S
Co156       O160   2.015   1_546  S
Co157       O160   2.029       .  S
Co158       O160   2.016   1_556  S
Co159       O160   1.999   1_546  S
C161        C574   1.485       .  S
C162        C511   1.490       .  S
C163        C646   1.486       .  S
C164        C535   1.464       .  S
C165        C175   1.462       .  S
C165        N166   1.357       .  A
C165        N170   1.359       .  A
N166        C167   1.355       .  A
C167        C181   1.454       .  S
C167        N168   1.350       .  A
N168        C169   1.354       .  A
C169        C187   1.453       .  S
C169        N170   1.359       .  A
C171        C526   1.468       .  S
C171        N172   1.354       .  A
C171        N176   1.355       .  A
N172        C173   1.356       .  A
C173        C715   1.480       .  S
C173        N174   1.361       .  A
N174        C175   1.361       .  A
C175        N176   1.358       .  A
C177        C502   1.479       .  S
C177        N178   1.357       .  A
C177        N182   1.358       .  A
N178        C179   1.356       .  A
C179        C883   1.470       .  S
C179        N180   1.355       .  A
N180        C181   1.356       .  A
C181        N182   1.359       .  A
C183        C778   1.477       .  S
C183        N184   1.352       .  A
C183        N188   1.351       .  A
N184        C185   1.354       .  A
C185        C490   1.483       .  S
C185        N186   1.360       .  A
N186        C187   1.361       .  A
C187        N188   1.358       .  A
C189        C205   1.458       .  S
C189        N190   1.354       .  A
C189        N194   1.352       .  A
N190        C191   1.360       .  A
C191        C197   1.456       .  S
C191        N192   1.360       .  A
N192        C193   1.357       .  A
C193        C211   1.462       .  S
C193        N194   1.353       .  A
C195        C475   1.475       .  S
C195        N196   1.357       .  A
C195        N200   1.359       .  A
N196        C197   1.359       .  A
C197        N198   1.357       .  A
N198        C199   1.353       .  A
C199        C811   1.475       .  S
C199        N200   1.358       .  A
C201        C463   1.474       .  S
C201        N202   1.356       .  A
C201        N206   1.363       .  A
N202        C203   1.355       .  A
C203        C682   1.478       .  S
C203        N204   1.349       .  A
N204        C205   1.354       .  A
C205        N206   1.364       .  A
C207        C898   1.479       .  S
C207        N208   1.358       .  A
C207        N212   1.361       .  A
N208        C209   1.357       .  A
C209        C538   1.468       .  S
C209        N210   1.352       .  A
N210        C211   1.356       .  A
C211        N212   1.358       .  A
O213        C221   1.262       .  A
O213       Co233   1.971       .  S
O214        C222   1.251       .  A
O214       Co234   1.977       .  S
O215        C223   1.274       .  A
O215       Co235   2.026   1_556  S
O216        C224   1.296       .  A
O216       Co236   2.099   1_556  S
O217        C223   1.262       .  A
O217       Co234   1.944       .  S
O218        C224   1.275       .  A
O218       Co233   1.917       .  S
O219        C222   1.257       .  A
O219       Co236   2.005   1_456  S
O220        C221   1.279       .  A
O220       Co235   2.050   1_656  S
C221        C619   1.500       .  S
C222        C610   1.481       .  S
C223        C487   1.461       .  S
C224        C415   1.493       .  S
O225        C238   1.288       .  A
O225       Co233   2.090   1_554  S
O226        C239   1.266       .  A
O226       Co234   2.002   1_554  S
O227        C240   1.258       .  A
O227       Co235   1.950   1_655  S
O228        C241   1.272       .  A
O228       Co236   1.955   1_455  S
O229        C241   1.288       .  A
O229       Co234   2.065   1_554  S
O230        C240   1.275       .  A
O230       Co233   2.036   1_554  S
O231        C238   1.261       .  A
O231       Co236   1.910       .  S
O232        C239   1.261       .  A
O232       Co235   1.980       .  S
Co233       O237   2.016   1_656  S
Co234       O237   2.023   1_556  S
Co235       O237   2.042       .  S
Co236       O237   2.001   1_655  S
C238        C466   1.486       .  S
C239        C451   1.488       .  S
C240        C430   1.477       .  S
C241        C439   1.499       .  S
C242        C406   1.482       .  S
C242        N243   1.350       .  A
C242        N247   1.357       .  A
N243        C244   1.355       .  A
C244        C871   1.492       .  S
C244        N245   1.370       .  A
N245        C246   1.369       .  A
C246        C248   1.484       .  S
C246        N247   1.365       .  A
C248        N249   1.353       .  A
C248        N253   1.366       .  A
N249        C250   1.354       .  A
C250        C258   1.470       .  S
C250        N251   1.357       .  A
N251        C252   1.363       .  A
C252        C264   1.479       .  S
C252        N253   1.373       .  A
C254        C751   1.478       .  S
C254        N255   1.355       .  A
C254        N259   1.349       .  A
N255        C256   1.360       .  A
C256        C442   1.498       .  S
C256        N257   1.368       .  A
N257        C258   1.368       .  A
C258        N259   1.359       .  A
C260        C655   1.503       .  S
C260        N261   1.360       .  A
C260        N265   1.365       .  A
N261        C262   1.359       .  A
C262        C562   1.477       .  S
C262        N263   1.358       .  A
N263        C264   1.361       .  A
C264        N265   1.369       .  A
C266        C276   1.467       .  S
C266        N267   1.354       .  A
C266        N271   1.357       .  A
N267        C268   1.359       .  A
C268        C282   1.469       .  S
C268        N269   1.367       .  A
N269        C270   1.364       .  A
C270        C288   1.478       .  S
C270        N271   1.355       .  A
C272        C790   1.469       .  S
C272        N273   1.361       .  A
C272        N277   1.349       .  A
N273        C274   1.367       .  A
C274        C418   1.494       .  S
C274        N275   1.365       .  A
N275        C276   1.362       .  A
C276        N277   1.351       .  A
C278        C571   1.481       .  S
C278        N279   1.357       .  A
C278        N283   1.359       .  A
N279        C280   1.357       .  A
C280        C667   1.495       .  S
C280        N281   1.359       .  A
N281        C282   1.363       .  A
C282        N283   1.360       .  A
C284        C922   1.493       .  S
C284        N285   1.362       .  A
C284        N289   1.365       .  A
N285        C286   1.360       .  A
C286        C394   1.492       .  S
C286        N287   1.359       .  A
N287        C288   1.363       .  A
C288        N289   1.364       .  A
C290        C300   1.474       .  S
C290        N291   1.369       .  A
C290        N295   1.359       .  A
N291        C292   1.367       .  A
C292        C310   1.475       .  S
C292        N293   1.356       .  A
N293        C294   1.350       .  A
C294        C306   1.462       .  S
C294        N295   1.354       .  A
C296        C931   1.496       .  S
C296        N297   1.357       .  A
C296        N301   1.365       .  A
N297        C298   1.353       .  A
C298        C379   1.474       .  S
C298        N299   1.357       .  A
N299        C300   1.364       .  A
C300        N301   1.363       .  A
C302        C427   1.496       .  S
C302        N303   1.363       .  A
C302        N307   1.358       .  A
N303        C304   1.361       .  A
C304        C766   1.475       .  S
C304        N305   1.356       .  A
N305        C306   1.356       .  A
C306        N307   1.359       .  A
C308        C514   1.499       .  S
C308        N309   1.370       .  A
C308        N313   1.359       .  A
N309        C310   1.368       .  A
C310        N311   1.360       .  A
N311        C312   1.351       .  A
C312        C703   1.473       .  S
C312        N313   1.353       .  A
C314        C330   1.473       .  S
C314        N315   1.355       .  A
C314        N319   1.362       .  A
N315        C316   1.352       .  A
C316        C336   1.472       .  S
C316        N317   1.360       .  A
N317        C318   1.366       .  A
C318        C324   1.474       .  S
C318        N319   1.365       .  A
C320        C907   1.482       .  S
C320        N321   1.349       .  A
C320        N325   1.367       .  A
N321        C322   1.350       .  A
C322        C547   1.473       .  S
C322        N323   1.356       .  A
N323        C324   1.361       .  A
C324        N325   1.370       .  A
C326        C838   1.476       .  S
C326        N327   1.353       .  A
C326        N331   1.352       .  A
N327        C328   1.359       .  A
C328        C370   1.500       .  S
C328        N329   1.368       .  A
N329        C330   1.366       .  A
C330        N331   1.359       .  A
C332        C727   1.470       .  S
C332        N333   1.356       .  A
C332        N337   1.361       .  A
N333        C334   1.355       .  A
C334        C454   1.494       .  S
C334        N335   1.360       .  A
N335        C336   1.362       .  A
C336        N337   1.361       .  A
O338        C346   1.280       .  A
O338       Co358   2.037   1_655  S
O339        C347   1.267       .  A
O339       Co359   2.020   1_455  S
O340        C348   1.269       .  A
O340       Co360   1.912       .  S
O341        C349   1.271       .  A
O341       Co361   1.994       .  S
O342        C348   1.291       .  A
O342       Co359   2.084       .  S
O343        C349   1.272       .  A
O343       Co358   2.007       .  S
O344        C347   1.259       .  A
O344       Co361   1.978   1_545  S
O345        C346   1.269       .  A
O345       Co360   1.968   1_565  S
C346        C382   1.494       .  S
C347        C403   1.480       .  S
C348        C478   1.485       .  S
C349        C367   1.490       .  S
O350        C363   1.265       .  A
O350       Co358   1.973       .  S
O351        C364   1.268       .  A
O351       Co359   1.919       .  S
O352        C365   1.266       .  A
O352       Co360   2.013   1_565  S
O353        C366   1.284       .  A
O353       Co361   2.055   1_545  S
O354        C366   1.269       .  A
O354       Co359   1.961   1_455  S
O355        C365   1.258       .  A
O355       Co358   1.971   1_655  S
O356        C363   1.270       .  A
O356       Co361   1.998       .  S
O357        C364   1.294       .  A
O357       Co360   2.100       .  S
Co358       O362   2.028       .  S
Co359       O362   2.013   1_645  S
Co360       O362   2.023   1_645  S
Co361       O362   2.036       .  S
C363        C499   1.475       .  S
C364        C391   1.497       .  S
C365        C634   1.482       .  S
C366        C583   1.491       .  S
C367        C368   1.402       .  A
C367        C372   1.411       .  A
C368        C369   1.399       .  A
C368        H373   1.083       .  S
C369        C370   1.419       .  A
C369        O374   1.372       .  S
C370        C371   1.410       .  A
C371        C372   1.410       .  A
C371        H375   1.083       .  S
C372        O376   1.371       .  S
O374        H378   0.992       .  S
O376        H377   0.992       .  S
C379        C380   1.400       .  A
C379        C384   1.405       .  A
C380        C381   1.404       .  A
C380        H385   1.084       .  S
C381        C382   1.417       .  A
C381        O386   1.371       .  S
C382        C383   1.409       .  A
C383        C384   1.401       .  A
C383        H387   1.083       .  S
C384        O388   1.372       .  S
O386        H390   0.991       .  S
O388        H389   0.992       .  S
C391        C392   1.408       .  A
C391        C396   1.414       .  A
C392        C393   1.402       .  A
C392        H397   1.083       .  S
C393        C394   1.409       .  A
C393        O398   1.372       .  S
C394        C395   1.407       .  A
C395        C396   1.412       .  A
C395        H399   1.083       .  S
C396        O400   1.372       .  S
O398        H402   0.992       .  S
O400        H401   0.992       .  S
C403        C404   1.404       .  A
C403        C408   1.409       .  A
C404        C405   1.401       .  A
C404        H409   1.084       .  S
C405        C406   1.411       .  A
C405        O410   1.373       .  S
C406        C407   1.404       .  A
C407        C408   1.405       .  A
C407        H411   1.083       .  S
C408        O412   1.371       .  S
O410        H414   0.992       .  S
O412        H413   0.992       .  S
C415        C416   1.406       .  A
C415        C420   1.414       .  A
C416        C417   1.410       .  A
C416        H421   1.083       .  S
C417        C418   1.414       .  A
C417        O422   1.371       .  S
C418        C419   1.403       .  A
C419        C420   1.401       .  A
C419        H423   1.084       .  S
C420        O424   1.371       .  S
O422        H426   0.992       .  S
O424        H425   0.992       .  S
C427        C428   1.405       .  A
C427        C432   1.420       .  A
C428        C429   1.396       .  A
C428        H433   1.083       .  S
C429        C430   1.409       .  A
C429        O434   1.373       .  S
C430        C431   1.400       .  A
C431        C432   1.409       .  A
C431        H435   1.084       .  S
C432        O436   1.371       .  S
O434        H438   0.992       .  S
O436        H437   0.991       .  S
C439        C440   1.405       .  A
C439        C444   1.416       .  A
C440        C441   1.394       .  A
C440        H445   1.084       .  S
C441        C442   1.413       .  A
C441        O446   1.372       .  S
C442        C443   1.410       .  A
C443        C444   1.416       .  A
C443        H447   1.083       .  S
C444        O448   1.371       .  S
O446        H450   0.992       .  S
O448        H449   0.992       .  S
C451        C452   1.404       .  A
C451        C456   1.412       .  A
C452        C453   1.399       .  A
C452        H457   1.084       .  S
C453        C454   1.416       .  A
C453        O458   1.372       .  S
C454        C455   1.408       .  A
C455        C456   1.404       .  A
C455        H459   1.083       .  S
C456        O460   1.371       .  S
O458        H462   0.992       .  S
O460        H461   0.992       .  S
C463        C464   1.402       .  A
C463        C468   1.406       .  A
C464        C465   1.406       .  A
C464        H469   1.084       .  S
C465        C466   1.414       .  A
C465        O470   1.371       .  S
C466        C467   1.406       .  A
C467        C468   1.397       .  A
C467        H471   1.083       .  S
C468        O472   1.373       .  S
O470        H474   0.992       .  S
O472        H473   0.992       .  S
C475        C476   1.399       .  A
C475        C480   1.408       .  A
C476        C477   1.393       .  A
C476        H481   1.084       .  S
C477        C478   1.414       .  A
C477        O482   1.371       .  S
C478        C479   1.409       .  A
C479        C480   1.407       .  A
C479        H483   1.083       .  S
C480        O484   1.371       .  S
O482        H486   0.991       .  S
O484        H485   0.992       .  S
C487        C488   1.395       .  A
C487        C492   1.407       .  A
C488        C489   1.391       .  A
C488        H493   1.084       .  S
C489        C490   1.416       .  A
C489        O494   1.372       .  S
C490        C491   1.408       .  A
C491        C492   1.404       .  A
C491        H495   1.083       .  S
C492        O496   1.372       .  S
O494        H498   0.993       .  S
O496        H497   0.992       .  S
C499        C500   1.402       .  A
C499        C504   1.411       .  A
C500        C501   1.394       .  A
C500        H505   1.084       .  S
C501        C502   1.411       .  A
C501        O506   1.372       .  S
C502        C503   1.405       .  A
C503        C504   1.403       .  A
C503        H507   1.084       .  S
C504        O508   1.371       .  S
O506        H510   0.992       .  S
O508        H509   0.992       .  S
C511        C512   1.408       .  A
C511        C516   1.408       .  A
C512        C513   1.410       .  A
C512        H517   1.083       .  S
C513        C514   1.412       .  A
C513        O518   1.371       .  S
C514        C515   1.411       .  A
C515        C516   1.399       .  A
C515        H519   1.083       .  S
C516        O520   1.372       .  S
O518        H522   0.992       .  S
O520        H521   0.992   1_554  S
C523        C524   1.403       .  A
C523        C528   1.408       .  A
C524        C525   1.395       .  A
C524        H529   1.082       .  S
C525        C526   1.406       .  A
C525        O530   1.372       .  S
C526        C527   1.403       .  A
C527        C528   1.401       .  A
C527        H531   1.084       .  S
C528        O532   1.372       .  S
O530        H534   0.991       .  S
O532        H533   0.992       .  S
C535        C536   1.402       .  A
C535        C540   1.405       .  A
C536        C537   1.395       .  A
C536        H541   1.084       .  S
C537        C538   1.405       .  A
C537        O542   1.372       .  S
C538        C539   1.406       .  A
C539        C540   1.401       .  A
C539        H543   1.084       .  S
C540        O544   1.371       .  S
O542        H546   0.992       .  S
O544        H545   0.992       .  S
C547        C548   1.404       .  A
C547        C552   1.411       .  A
C548        C549   1.402       .  A
C548        H553   1.084       .  S
C549        C550   1.408       .  A
C549        O554   1.372       .  S
C550        C551   1.395       .  A
C551        C552   1.392       .  A
C551        H555   1.084       .  S
C552        O556   1.373       .  S
O554        H558   0.992       .  S
O556        H557   0.992       .  S
C559        C560   1.409       .  A
C559        C564   1.417       .  A
C560        C561   1.405       .  A
C560        H565   1.083       .  S
C561        C562   1.406       .  A
C561        O566   1.371       .  S
C562        C563   1.399       .  A
C563        C564   1.402       .  A
C563        H567   1.084       .  S
C564        O568   1.373       .  S
O566        H570   0.992       .  S
O568        H569   0.992   1_554  S
C571        C572   1.406       .  A
C571        C576   1.409       .  A
C572        C573   1.406       .  A
C572        H577   1.083       .  S
C573        C574   1.412       .  A
C573        O578   1.371       .  S
C574        C575   1.406       .  A
C575        C576   1.395       .  A
C575        H579   1.084       .  S
C576        O580   1.373       .  S
O578        H582   0.992       .  S
O580        H581   0.992       .  S
C583        C584   1.408       .  A
C583        C588   1.412       .  A
C584        C585   1.400       .  A
C584        H589   1.083       .  S
C585        C586   1.407       .  A
C585        O590   1.373       .  S
C586        C587   1.406       .  A
C587        C588   1.410       .  A
C587        H591   1.083       .  S
C588        O592   1.371       .  S
O590        H594   0.992       .  S
O592        H593   0.992       .  S
C595        C596   1.401       .  A
C595        C600   1.406       .  A
C596        C597   1.404       .  A
C596        H601   1.084       .  S
C597        C598   1.414       .  A
C597        O602   1.372       .  S
C598        C599   1.404       .  A
C599        C600   1.392       .  A
C599        H603   1.084       .  S
C600        O604   1.372       .  S
O602        H606   0.992       .  S
O604        H605   0.992       .  S
C607        C608   1.402       .  A
C607        C612   1.405       .  A
C608        C609   1.400       .  A
C608        H613   1.084       .  S
C609        C610   1.409       .  A
C609        O614   1.372       .  S
C610        C611   1.408       .  A
C611        C612   1.402       .  A
C611        H615   1.083       .  S
C612        O616   1.371       .  S
O614        H618   0.991   1_556  S
O616        H617   0.992       .  S
C619        C620   1.410       .  A
C619        C624   1.415       .  A
C620        C621   1.408       .  A
C620        H625   1.083       .  S
C621        C622   1.408       .  A
C621        O626   1.372       .  S
C622        C623   1.403       .  A
C623        C624   1.408       .  A
C623        H627   1.084       .  S
C624        O628   1.371       .  S
O626        H630   0.992       .  S
O628        H629   0.991       .  S
C631        C632   1.400       .  A
C631        C636   1.403       .  A
C632        C633   1.401       .  A
C632        H637   1.084       .  S
C633        C634   1.413       .  A
C633        O638   1.372       .  S
C634        C635   1.408       .  A
C635        C636   1.399       .  A
C635        H639   1.084       .  S
C636        O640   1.372       .  S
O638        H642   0.991       .  S
O640        H641   0.992       .  S
C643        C644   1.400       .  A
C643        C648   1.402       .  A
C644        C645   1.402       .  A
C644        H649   1.084       .  S
C645        C646   1.414       .  A
C645        O650   1.372       .  S
C646        C647   1.410       .  A
C647        C648   1.398       .  A
C647        H651   1.083       .  S
C648        O652   1.372       .  S
O650        H654   0.992       .  S
O652        H653   0.991       .  S
C655        C656   1.410       .  A
C655        C660   1.413       .  A
C656        C657   1.419       .  A
C656        H661   1.083       .  S
C657        C658   1.415       .  A
C657        O662   1.373       .  S
C658        C659   1.409       .  A
C659        C660   1.401       .  A
C659        H663   1.083       .  S
C660        O664   1.372       .  S
O662        H666   0.992       .  S
O664        H665   0.992       .  S
C667        C668   1.408       .  A
C667        C672   1.418       .  A
C668        C669   1.394       .  A
C668        H673   1.083       .  S
C669        C670   1.405       .  A
C669        O674   1.373       .  S
C670        C671   1.401       .  A
C671        C672   1.408       .  A
C671        H675   1.084       .  S
C672        O676   1.371       .  S
O674        H678   0.992   1_556  S
O676        H677   0.992       .  S
C679        C680   1.401       .  A
C679        C684   1.415       .  A
C680        C681   1.402       .  A
C680        H685   1.083       .  S
C681        C682   1.415       .  A
C681        O686   1.371       .  S
C682        C683   1.399       .  A
C683        C684   1.392       .  A
C683        H687   1.084       .  S
C684        O688   1.373       .  S
O686        H690   0.992       .  S
O688        H689   0.991       .  S
C691        C692   1.406       .  A
C691        C696   1.417       .  A
C692        C693   1.406       .  A
C692        H697   1.084       .  S
C693        C694   1.413       .  A
C693        O698   1.372       .  S
C694        C695   1.397       .  A
C695        C696   1.402       .  A
C695        H699   1.084       .  S
C696        O700   1.371       .  S
O698        H702   0.992       .  S
O700        H701   0.992   1_556  S
C703        C704   1.397       .  A
C703        C708   1.408       .  A
C704        C705   1.393       .  A
C704        H709   1.084       .  S
C705        C706   1.413       .  A
C705        O710   1.369       .  S
C706        C707   1.406       .  A
C707        C708   1.406       .  A
C707        H711   1.083       .  S
C708        O712   1.370       .  S
O710        H714   0.992       .  S
O712        H713   0.992       .  S
C715        C716   1.404       .  A
C715        C720   1.410       .  A
C716        C717   1.404       .  A
C716        H721   1.084       .  S
C717        C718   1.413       .  A
C717        O722   1.371       .  S
C718        C719   1.406       .  A
C719        C720   1.397       .  A
C719        H723   1.084       .  S
C720        O724   1.372       .  S
O722        H726   0.992       .  S
O724        H725   0.992       .  S
C727        C728   1.405       .  A
C727        C732   1.402       .  A
C728        C729   1.403       .  A
C728        H733   1.084       .  S
C729        C730   1.408       .  A
C729        O734   1.371       .  S
C730        C731   1.409       .  A
C731        C732   1.396       .  A
C731        H735   1.083       .  S
C732        O736   1.372       .  S
O734        H738   0.990       .  S
O736        H737   0.991       .  S
C739        C740   1.407       .  A
C739        C744   1.414       .  A
C740        C741   1.398       .  A
C740        H745   1.083       .  S
C741        C742   1.411       .  A
C741        O746   1.372       .  S
C742        C743   1.404       .  A
C743        C744   1.400       .  A
C743        H747   1.083       .  S
C744        O748   1.371       .  S
O746        H750   0.992       .  S
O748        H749   0.992       .  S
C751        C752   1.396       .  A
C751        C756   1.411       .  A
C752        C753   1.395       .  A
C752        H757   1.084       .  S
C753        C754   1.416       .  A
C753        O758   1.371       .  S
C754        C755   1.406       .  A
C755        C756   1.409       .  A
C755        H759   1.083       .  S
C756        O760   1.371       .  S
O758        H762   0.992       .  S
O760        H761   0.992       .  S
C763        C764   1.410       .  A
C763        C768   1.411       .  A
C764        C765   1.398       .  A
C764        H769   1.083       .  S
C765        C766   1.405       .  A
C765        O770   1.372       .  S
C766        C767   1.404       .  A
C767        C768   1.404       .  A
C767        H771   1.084       .  S
C768        O772   1.371       .  S
O770        H774   0.992       .  S
O772        H773   0.992       .  S
C775        C776   1.404       .  A
C775        C780   1.407       .  A
C776        C777   1.404       .  A
C776        H781   1.084       .  S
C777        C778   1.413       .  A
C777        O782   1.371       .  S
C778        C779   1.401       .  A
C779        C780   1.389       .  A
C779        H783   1.084       .  S
C780        O784   1.371       .  S
O782        H786   0.992       .  S
O784        H785   0.992       .  S
C787        C788   1.405       .  A
C787        C792   1.413       .  A
C788        C789   1.394       .  A
C788        H793   1.084       .  S
C789        C790   1.405       .  A
C789        O794   1.373       .  S
C790        C791   1.403       .  A
C791        C792   1.407       .  A
C791        H795   1.083       .  S
C792        O796   1.371       .  S
O794        H798   0.992       .  S
O796        H797   0.992       .  S
C799        C800   1.409       .  A
C799        C804   1.412       .  A
C800        C801   1.398       .  A
C800        H805   1.083       .  S
C801        C802   1.405       .  A
C801        O806   1.372       .  S
C802        C803   1.404       .  A
C803        C804   1.406       .  A
C803        H807   1.084       .  S
C804        O808   1.369       .  S
O806        H810   0.992       .  S
O808        H809   0.992       .  S
C811        C812   1.397       .  A
C811        C816   1.411       .  A
C812        C813   1.394       .  A
C812        H817   1.084       .  S
C813        C814   1.417       .  A
C813        O818   1.372       .  S
C814        C815   1.406       .  A
C815        C816   1.405       .  A
C815        H819   1.083       .  S
C816        O820   1.371       .  S
O818        H822   0.992       .  S
O820        H821   0.992       .  S
C823        C824   1.406       .  A
C823        C828   1.414       .  A
C824        C825   1.392       .  A
C824        H829   1.083       .  S
C825        C826   1.409       .  A
C825        O830   1.373       .  S
C826        C827   1.409       .  A
C827        C828   1.410       .  A
C827        H831   1.083       .  S
C828        O832   1.371       .  S
O830        H834   0.991       .  S
O832        H833   0.992       .  S
C835        C836   1.405       .  A
C835        C840   1.410       .  A
C836        C837   1.401       .  A
C836        H841   1.084       .  S
C837        C838   1.408       .  A
C837        O842   1.371       .  S
C838        C839   1.403       .  A
C839        C840   1.401       .  A
C839        H843   1.084       .  S
C840        O844   1.372       .  S
O842        H846   0.991       .  S
O844        H845   0.992       .  S
C847        C848   1.400       .  A
C847        C852   1.414       .  A
C848        C849   1.392       .  A
C848        H853   1.084       .  S
C849        C850   1.414       .  A
C849        O854   1.372       .  S
C850        C851   1.406       .  A
C851        C852   1.411       .  A
C851        H855   1.083       .  S
C852        O856   1.371       .  S
O854        H858   0.992       .  S
O856        H857   0.992       .  S
C859        C860   1.406       .  A
C859        C864   1.412       .  A
C860        C861   1.409       .  A
C860        H865   1.083       .  S
C861        C862   1.414       .  A
C861        O866   1.371       .  S
C862        C863   1.403       .  A
C863        C864   1.399       .  A
C863        H867   1.083       .  S
C864        O868   1.373       .  S
O866        H870   0.992       .  S
O868        H869   0.992       .  S
C871        C872   1.405       .  A
C871        C876   1.417       .  A
C872        C873   1.408       .  A
C872        H877   1.083       .  S
C873        C874   1.417       .  A
C873        O878   1.371       .  S
C874        C875   1.402       .  A
C875        C876   1.396       .  A
C875        H879   1.084       .  S
C876        O880   1.372       .  S
O878        H882   0.992       .  S
O880        H881   0.992       .  S
C883        C884   1.404       .  A
C883        C888   1.409       .  A
C884        C885   1.398       .  A
C884        H889   1.084       .  S
C885        C886   1.405       .  A
C885        O890   1.372       .  S
C886        C887   1.401       .  A
C887        C888   1.397       .  A
C887        H891   1.083       .  S
C888        O892   1.372       .  S
O890        H894   0.992       .  S
O892        H893   0.992       .  S
C895        C896   1.407       .  A
C895        C900   1.414       .  A
C896        C897   1.399       .  A
C896        H901   1.083       .  S
C897        C898   1.409       .  A
C897        O902   1.372       .  S
C898        C899   1.403       .  A
C899        C900   1.400       .  A
C899        H903   1.084       .  S
C900        O904   1.372       .  S
O902        H906   0.992       .  S
O904        H905   0.992       .  S
C907        C908   1.398       .  A
C907        C912   1.412       .  A
C908        C909   1.408       .  A
C908        H913   1.084       .  S
C909        C910   1.423       .  A
C909        O914   1.373       .  S
C910        C911   1.404       .  A
C911        C912   1.402       .  A
C911        H915   1.083       .  S
C912        O916   1.372       .  S
O914        H918   0.992       .  S
O916        H917   0.992       .  S
C919        C920   1.401       .  A
C919        C924   1.411       .  A
C920        C921   1.405       .  A
C920        H925   1.084       .  S
C921        C922   1.415       .  A
C921        O926   1.371       .  S
C922        C923   1.405       .  A
C923        C924   1.406       .  A
C923        H927   1.083       .  S
C924        O928   1.372       .  S
O926        H930   0.992       .  S
O928        H929   0.992       .  S
C931        C932   1.407       .  A
C931        C936   1.416       .  A
C932        C933   1.406       .  A
C932        H937   1.083       .  S
C933        C934   1.414       .  A
C933        O938   1.371       .  S
C934        C935   1.404       .  A
C935        C936   1.399       .  A
C935        H939   1.083       .  S
C936        O940   1.372       .  S
O938        H942   0.992       .  S
O940        H941   0.992       .  S
