geometry optimzed in LAMMPS
_audit_creation_date              2020-11-30 
_audit_creation_method            'lammps2cif' 
_symmetry_space_group_name_H-M    'P1' 
_symmetry_Int_Tables_number       1 
_symmetry_cell_setting            triclinic 
loop_ 
_symmetry_equiv_pos_as_xyz 
  x,y,z 
_cell_length_a                    45.53726853939989 
_cell_length_b                    45.40162830567904 
_cell_length_c                    45.293549481329535 
_cell_angle_alpha                 89.66035952202967 
_cell_angle_beta                  90.35415302278021 
_cell_angle_gamma                 89.68434539443304 
loop_ 
_atom_site_label 
_atom_site_type_symbol 
_atom_site_fract_x 
_atom_site_fract_y 
_atom_site_fract_z 
_atom_site_charge 
C1          C  0.01889953  0.21366113  0.06131456     0.02510
C2          C  0.04142778  0.23537698  0.06105944     0.02510
C3          C  0.06304510  0.23524675  0.03869511     0.02510
C4          C  0.06349942  0.21192616  0.01753921     0.02510
C5          C  0.04095715  0.18966344  0.01787372     0.02510
C6          C  0.01790933  0.19125473  0.03938409     0.02510
C7          C  0.08090001  0.04056453  0.23723177     0.02510
C8          C  0.05881712  0.06288453  0.23799260     0.02510
C9          C  0.03520712  0.06244077  0.21713326     0.02510
C10         C  0.03401815  0.03971965  0.19509748     0.02510
C11         C  0.05723821  0.01811311  0.19355624     0.02510
C12         C  0.08122382  0.01908509  0.21414890     0.02510
O13         O  0.50671001  0.58130381  0.53630558    -0.88120
C14         C  0.44537546  0.53889124  0.48346993     0.87910
Mg15       Mg  0.55230914  0.58626591  0.52310089     1.58150
O16         O  0.46779329  0.50705723  0.54994189    -0.87850
O17         O  0.47608817  0.57193794  0.57237484    -0.75180
C18         C  0.58116306  0.45480467  0.49750671     0.92960
O19         O  0.50424751  0.57654068  0.46430233    -0.74990
O20         O  0.59557978  0.47745698  0.49084016    -0.82500
Mg21       Mg  0.47630203  0.59337187  0.50205956     1.57960
C22         C  0.49219379  0.42368690  0.55084586     0.92880
O23         O  0.44463790  0.60849342  0.53561795    -0.80760
H24         H  0.47133698  0.50493761  0.59405439    -0.06100
C25         C  0.50275552  0.48348570  0.47279658     0.87820
O26         O  0.56298241  0.54801025  0.55580723    -0.75270
O27         O  0.45658149  0.55105823  0.50528012    -0.88030
O28         O  0.46877578  0.43900885  0.55197172    -0.80840
C29         C  0.39881887  0.49783587  0.54455137     0.93000
C30         C  0.41919833  0.59887543  0.52968542     0.92850
Mg31       Mg  0.52893216  0.46809511  0.53008999     1.57950
O32         O  0.55440401  0.45426948  0.49119493    -0.80770
O33         O  0.50335883  0.48313733  0.57169639    -0.75010
O34         O  0.40612173  0.51707039  0.52626633    -0.80850
O35         O  0.49956766  0.63678690  0.50252887    -0.82560
O36         O  0.60134059  0.54229985  0.51281814    -0.80880
C37         C  0.48029187  0.49892306  0.57286780     0.87290
O38         O  0.54815242  0.51017849  0.52994996    -0.88020
O39         O  0.49715528  0.48213443  0.49959902    -0.88130
O40         O  0.52680202  0.49465191  0.46340927    -0.75180
Mg41       Mg  0.43961677  0.54421257  0.54951451     1.57970
O42         O  0.40832537  0.47191146  0.54062561    -0.82560
H43         H  0.51375152  0.59540781  0.57757811    -0.06280
O44         O  0.54105085  0.55627472  0.48770593    -0.87830
H45         H  0.53789428  0.55623235  0.44357734    -0.06110
H46         H  0.56530103  0.50562672  0.57063069    -0.06280
C47         C  0.52846421  0.56281753  0.46436560     0.87270
C48         C  0.49968074  0.58342351  0.56261522     0.87850
C49         C  0.55897427  0.52039181  0.55287687     0.87900
H50         H  0.48728214  0.47451908  0.45708770    -0.06260
O51         O  0.44048906  0.51120983  0.48326775    -0.75290
Mg52       Mg  0.56644092  0.51803616  0.48775819     1.58000
H53         H  0.43903588  0.55205759  0.46449475    -0.06280
C54         C  0.52020688  0.63683719  0.48404260     0.92890
O55         O  0.59953748  0.58951066  0.50557428    -0.82520
C56         C  0.61026665  0.56463885  0.49914749     0.92950
O57         O  0.40744012  0.58295880  0.54886336    -0.82500
Mg58       Mg  0.45399164  0.47512484  0.51778641     1.58180
O59         O  0.54391368  0.62340125  0.49009865    -0.80840
O60         O  0.50792966  0.42488718  0.52828843    -0.82530
C61         C  0.66059833  0.32192131  0.54649999     0.03360
C62         C  0.64348611  0.34280590  0.56118652    -0.12790
C63         C  0.64282361  0.37140076  0.55067019     0.00860
C64         C  0.66201281  0.37978094  0.52834592    -0.11320
C65         C  0.68540653  0.36207636  0.51943541     0.03350
C66         C  0.68309632  0.33153811  0.52681783    -0.10740
H67         H  0.62624681  0.33573541  0.57605101     0.08940
H68         H  0.65700073  0.39982084  0.51632722     0.06470
H69         H  0.69711395  0.31534909  0.51651921     0.06320
C70         C  0.35699509  0.67214910  0.47071840     0.03360
C71         C  0.36204944  0.65636048  0.44463561    -0.12790
C72         C  0.35445031  0.62653560  0.44350022     0.00860
C73         C  0.32890801  0.61934644  0.45858131    -0.11320
C74         C  0.32352755  0.63183612  0.48648894     0.03350
C75         C  0.33861798  0.65887419  0.49283894    -0.10740
H76         H  0.37837690  0.66451512  0.42936560     0.08940
H77         H  0.31829345  0.59925629  0.45222473     0.06470
H78         H  0.33682659  0.66898452  0.51430862     0.06320
C79         C  0.32587511  0.52682082  0.66160648     0.03360
C80         C  0.34112497  0.55300644  0.65686813    -0.12790
C81         C  0.37137189  0.55049046  0.65611187     0.00860
C82         C  0.38247490  0.53605775  0.68080808    -0.11320
C83         C  0.36940491  0.50949382  0.69049469     0.03350
C84         C  0.34046830  0.50387536  0.67847947    -0.10740
H85         H  0.33067612  0.57045483  0.64418933     0.08940
H86         H  0.40362951  0.54317418  0.68814538     0.06470
H87         H  0.33003158  0.48273103  0.68118085     0.06320
C88         C  0.65129312  0.50363597  0.34059363     0.03360
C89         C  0.63837993  0.51799791  0.36455708    -0.12790
C90         C  0.64387563  0.50840555  0.39350420     0.00860
C91         C  0.66121997  0.48320327  0.39766930    -0.11320
C92         C  0.68071515  0.47449340  0.37563447     0.03350
C93         C  0.67460056  0.48331024  0.34608236    -0.10740
H94         H  0.62412255  0.53661850  0.36012386     0.08940
H95         H  0.66456267  0.47448638  0.41977951     0.06470
H96         H  0.68781389  0.47512642  0.32808301     0.06320
C97         C  0.49292467  0.68248540  0.35061261     0.03360
C98         C  0.46955049  0.66407717  0.35749625    -0.12790
C99         C  0.47765305  0.63547769  0.36514393     0.00860
C100        C  0.49404785  0.62168853  0.34375557    -0.11320
C101        C  0.51575979  0.63773675  0.32838576     0.03350
C102        C  0.51697435  0.66897182  0.33476818    -0.10740
H103        H  0.45046946  0.67346403  0.36810142     0.08940
H104        H  0.49158388  0.59811901  0.34224287     0.06470
H105        H  0.53590209  0.68186557  0.32863010     0.06320
C106        C  0.53470439  0.31866357  0.65761367     0.03360
C107        C  0.55248158  0.34150177  0.64714551    -0.12790
C108        C  0.54470128  0.37006511  0.65339941     0.00860
C109        C  0.53260667  0.37529430  0.68063322    -0.11320
C110        C  0.51301180  0.35463148  0.69270646     0.03350
C111        C  0.51410351  0.32520533  0.68086085    -0.10740
H112        H  0.56635529  0.33799038  0.62806839     0.08940
H113        H  0.53263144  0.39797311  0.68793876     0.06470
H114        H  0.49819096  0.30893325  0.68761879     0.06320
C115        C  0.99465453  0.28203925  0.45605388     0.02510
C116        C  0.99074388  0.30387835  0.47820087     0.02510
C117        C  0.96711381  0.30204356  0.49863482     0.02510
C118        C  0.94671554  0.27835945  0.49608994     0.02510
C119        C  0.95015379  0.25636873  0.47351196     0.02510
C120        C  0.97527510  0.25746902  0.45452903     0.02510
O121        O  0.99267069  0.93215221  0.50068023    -0.88120
C122        C  0.07035712  0.95394279  0.54134620     0.87910
Mg123      Mg  0.97818054  0.95496022  0.46182691     1.58150
O124        O  0.00548515  0.97686871  0.57361483    -0.87850
O125        O  0.97740641  0.92002301  0.54485879    -0.75180
C126        C  0.98195391  0.08824298  0.50209550     0.92960
O127        O  0.05291440  0.95788137  0.47168386    -0.74990
O128        O  0.97840511  0.07659099  0.47701280    -0.82500
Mg129      Mg  0.03801215  0.91811284  0.49960436     1.57960
C130        C  0.99459408  0.05626904  0.60926313     0.92880
O131        O  0.02651016  0.87896210  0.52803679    -0.80760
H132        H  0.96810608  0.96535527  0.59325282    -0.06100
C133        C  0.04830094  0.03726505  0.52696020     0.87820
O134        O  0.94670123  0.98180257  0.49222978    -0.75270
O135        O  0.04570225  0.94284922  0.53786281    -0.88030
O136        O  0.01131425  0.03389602  0.61196136    -0.80840
C137        C  0.04989266  0.95191778  0.62560052     0.93000
C138        C  0.03995423  0.87449354  0.55234940     0.92850
Mg139      Mg  0.98599609  0.04354164  0.54675745     1.57950
O140        O  0.00283531  0.07926508  0.51788526    -0.80770
O141        O  0.96781881  0.00649098  0.57539185    -0.75010
O142        O  0.05724530  0.94310956  0.60057094    -0.80850
O143        O  0.02840001  0.89293157  0.45865058    -0.82560
O144        O  0.95749569  0.01648364  0.44850592    -0.80880
C145        C  0.98006640  0.98202862  0.58132033     0.87290
O146        O  0.97599820  0.01564833  0.51054581    -0.88020
O147        O  0.03042430  0.02768598  0.54521067    -0.88130
O148        O  0.04127672  0.04087941  0.49973845    -0.75180
Mg149      Mg  0.01714607  0.93185212  0.57396456     1.57970
O150        O  0.04908726  0.97944800  0.62969070    -0.82560
H151        H  0.95341808  0.91372408  0.50746174    -0.06280
O152        O  0.01372421  0.98576616  0.46963335    -0.87830
H153        H  0.05135467  0.99711426  0.45001727    -0.06110
H154        H  0.93344878  0.01309024  0.52142587    -0.06280
C155        C  0.03962993  0.98105440  0.46304380     0.87270
C156        C  0.97376710  0.92143104  0.51701707     0.87850
C157        C  0.95140043  0.00401768  0.50881666     0.87900
H158        H  0.07008314  0.04323649  0.53432519    -0.06260
O159        O  0.07431034  0.97641938  0.55772108    -0.75290
Mg160      Mg  0.99841079  0.03008049  0.47274658     1.58000
H161        H  0.08901302  0.94425527  0.53031577    -0.06280
C162        C  0.02795714  0.90920858  0.43584530     0.92890
O163        O  0.96591077  0.98023211  0.41894062    -0.82520
C164        C  0.96366760  0.00764539  0.42310351     0.92950
O165        O  0.02864117  0.88393224  0.57570559    -0.82500
Mg166      Mg  0.04210953  0.00529810  0.58522657     1.58180
O167        O  0.00934487  0.92990699  0.43284191    -0.80840
O168        O  0.99536206  0.07183064  0.58608701    -0.82530
C169        C  0.17626040  0.97467553  0.37330015     0.03360
C170        C  0.16683442  0.99670098  0.35283477    -0.12790
C171        C  0.13620836  0.00154913  0.34796349     0.00860
C172        C  0.11722779  0.98732801  0.36776172    -0.11320
C173        C  0.12588546  0.96160720  0.38257495     0.03350
C174        C  0.15570610  0.95515692  0.38493895    -0.10740
H175        H  0.18324500  0.00935097  0.34139832     0.08940
H176        H  0.09465696  0.99446221  0.36983346     0.06470
H177        H  0.16323408  0.93625713  0.39760582     0.06320
C178        C  0.04352034  0.12963941  0.34573713     0.03360
C179        C  0.03143140  0.15707543  0.35524895    -0.12790
C180        C  0.02179829  0.15986025  0.38511508     0.00860
C181        C  0.01998224  0.13413048  0.40239824    -0.11320
C182        C  0.02908255  0.10705899  0.39126575     0.03350
C183        C  0.04696720  0.10698651  0.36660865    -0.10740
H184        H  0.02894735  0.17525693  0.33986245     0.08940
H185        H  0.00833238  0.13460509  0.42321801     0.06470
H186        H  0.05593424  0.08611378  0.35925340     0.06320
C187        C  0.19373147  0.85548331  0.51896775     0.03360
C188        C  0.18435459  0.86786592  0.54588431    -0.12790
C189        C  0.16287961  0.85383106  0.56231498     0.00860
C190        C  0.16238549  0.82335114  0.56101119    -0.11320
C191        C  0.16577353  0.81053026  0.53337095     0.03350
C192        C  0.18218026  0.82680825  0.51157297    -0.10740
H193        H  0.18926084  0.89046649  0.55141939     0.08940
H194        H  0.14923748  0.81177438  0.57722394     0.06470
H195        H  0.18500158  0.81800743  0.48961704     0.06320
C196        C  0.83815239  0.14268047  0.54369780     0.03360
C197        C  0.84398163  0.16389772  0.52124479    -0.12790
C198        C  0.87069504  0.17977946  0.52234219     0.00860
C199        C  0.88920314  0.17531971  0.54689497    -0.11320
C200        C  0.88827017  0.14799101  0.56074992     0.03350
C201        C  0.86064361  0.13527591  0.56392032    -0.10740
H202        H  0.82933005  0.16618490  0.50243727     0.08940
H203        H  0.90995786  0.18685461  0.54739478     0.06470
H204        H  0.85879276  0.11535394  0.57710452     0.06320
C205        C  0.83423248  0.02105583  0.65734369     0.03360
C206        C  0.85553675  0.04196525  0.64958746    -0.12790
C207        C  0.88291909  0.04118056  0.66301508     0.00860
C208        C  0.88763740  0.02178539  0.68677158    -0.11320
C209        C  0.86918996  0.99801818  0.69212575     0.03350
C210        C  0.84145583  0.99795251  0.67771759    -0.10740
H211        H  0.85188995  0.05656655  0.63085410     0.08940
H212        H  0.90904886  0.02206369  0.69747056     0.06470
H213        H  0.82655633  0.97973104  0.68092831     0.06320
C214        C  0.99006007  0.81710609  0.63674027     0.03360
C215        C  0.97281107  0.83879969  0.62197153    -0.12790
C216        C  0.96543630  0.86465890  0.63669493     0.00860
C217        C  0.95426510  0.85949591  0.66444246    -0.11320
C218        C  0.97113935  0.84105141  0.68279409     0.03350
C219        C  0.99025346  0.81973457  0.66872494    -0.10740
H220        H  0.96607103  0.83751632  0.59930668     0.08940
H221        H  0.94160589  0.87712846  0.67436358     0.06470
H222        H  0.00523928  0.80679985  0.68216547     0.06320
C223        C  0.27747439  0.94079968  0.47394976     0.02510
C224        C  0.27712223  0.96144031  0.45002159     0.02510
C225        C  0.30033218  0.98227767  0.44642569     0.02510
C226        C  0.32414341  0.98297867  0.46734339     0.02510
C227        C  0.32143391  0.96594593  0.49415846     0.02510
C228        C  0.29922783  0.94362880  0.49666836     0.02510
O229        O  0.03634225  0.44929802  0.01831988    -0.88120
C230        C  0.07951455  0.51401612  0.06756695     0.87910
Mg231      Mg  0.02438328  0.44686992  0.97330411     1.58150
O232        O  0.00243718  0.51194813  0.06306761    -0.87850
O233        O  0.01363034  0.44102301  0.05933678    -0.75180
C234        C  0.01691256  0.58333721  0.93942551     0.92960
O235        O  0.08912863  0.48962169  0.99330052    -0.74990
O236        O  0.00787808  0.56075834  0.92599071    -0.82500
Mg237      Mg  0.08079399  0.45957336  0.03145979     1.57960
C238        C  0.96389340  0.58790062  0.04282978     0.92880
O239        O  0.08067754  0.42781021  0.07071276    -0.80760
H240        H  0.96262877  0.49364630  0.06674251    -0.06100
C241        C  0.05039334  0.55918231  0.00732105     0.87820
O242        O  0.98118546  0.47126181  0.98033053    -0.75270
O243        O  0.06342102  0.49387878  0.05897467    -0.88030
O244        O  0.97190568  0.57240828  0.06471569    -0.80840
C245        C  0.01412637  0.53095242  0.12451141     0.93000
C246        C  0.07549434  0.42916998  0.09832869     0.92850
Mg247      Mg  0.98769262  0.55640175  0.99927011     1.57950
O248        O  0.01031640  0.58705127  0.96626508    -0.80770
O249        O  0.96579231  0.52417501  0.03390945    -0.75010
O250        O  0.03700167  0.51584497  0.11901973    -0.80850
O251        O  0.09898198  0.42515429  0.99995366    -0.82560
O252        O  0.00641795  0.49042116  0.91472903    -0.80880
C253        C  0.97655909  0.50889558  0.05512495     0.87290
O254        O  0.99381955  0.51760853  0.97535981    -0.88020
O255        O  0.02789063  0.55129381  0.02034376    -0.88130
O256        O  0.05499451  0.55188003  0.98050406    -0.75180
Mg257      Mg  0.02812571  0.47994396  0.08701149     1.57970
O258        O  0.01526889  0.55804080  0.11823371    -0.82560
H259        H  0.01231088  0.41311659  0.02460104    -0.06280
O260        O  0.04919123  0.48664304  0.96648306    -0.87830
H261        H  0.08622663  0.50446188  0.95143586    -0.06110
H262        H  0.95190448  0.50501048  0.97835461    -0.06280
C263        C  0.07548165  0.49280003  0.96914885     0.87270
C264        C  0.02073022  0.43340759  0.03361490     0.87850
C265        C  0.97470623  0.49837019  0.97729813     0.87900
H266        H  0.06609620  0.57297669  0.01859511    -0.06260
O267        O  0.06900931  0.53944575  0.07307719    -0.75290
Mg268      Mg  0.02924369  0.52184847  0.94658801     1.58000
H269        H  0.10271686  0.50985966  0.07077856    -0.06280
C270        C  0.09118517  0.41744068  0.97394042     0.92890
O271        O  0.00964300  0.44353744  0.92546486    -0.82520
C272        C  0.01767862  0.46514792  0.90987123     0.92950
O273        O  0.05939594  0.44905731  0.10975547    -0.82500
Mg274      Mg  0.02101813  0.55605328  0.06779668     1.58180
O275        O  0.06610304  0.42329129  0.96299024    -0.80840
O276        O  0.98310754  0.59663495  0.02536792    -0.82530
C277        C  0.14955116  0.31407398  0.99138847     0.03360
C278        C  0.14322438  0.31960967  0.96124099    -0.12790
C279        C  0.16300430  0.33575556  0.94362308     0.00860
C280        C  0.19212402  0.33626622  0.95294083    -0.11320
C281        C  0.19746111  0.33747396  0.98340857     0.03350
C282        C  0.17636321  0.32523886  0.00286823    -0.10740
H283        H  0.12164082  0.31471001  0.95251109     0.08940
H284        H  0.20760508  0.34677017  0.93817306     0.06470
H285        H  0.18012380  0.32569829  0.02648947     0.06320
C286        C  0.03682479  0.30403711  0.16830343     0.03360
C287        C  0.06515592  0.31437219  0.17418855    -0.12790
C288        C  0.06859916  0.34390518  0.18119649     0.00860
C289        C  0.04543927  0.35809768  0.19573706    -0.11320
C290        C  0.01721085  0.34583596  0.19655888     0.03350
C291        C  0.01244369  0.31928998  0.18077531    -0.10740
H292        H  0.08379702  0.30335827  0.16428214     0.08940
H293        H  0.04806853  0.38052432  0.20293557     0.06470
H294        H  0.99029425  0.31164315  0.17682795     0.06320
C295        C  0.84545169  0.48924072  0.12866910     0.03360
C296        C  0.87224197  0.49072053  0.11314403    -0.12790
C297        C  0.89800103  0.47799865  0.12509624     0.00860
C298        C  0.89494815  0.45865536  0.14891893    -0.11320
C299        C  0.87136757  0.46249307  0.16813057     0.03350
C300        C  0.84589740  0.47733978  0.15772066    -0.10740
H301        H  0.87339723  0.50352642  0.09293507     0.08940
H302        H  0.91427922  0.44769723  0.15785775     0.06470
H303        H  0.82721945  0.48023519  0.17211654     0.06320
C304        C  0.14760333  0.49032040  0.82966070     0.03360
C305        C  0.13012901  0.46515805  0.83225426    -0.12790
C306        C  0.13064324  0.44914748  0.85851588     0.00860
C307        C  0.15595343  0.44947340  0.87581709    -0.11320
C308        C  0.17741545  0.47092119  0.87103187     0.03350
C309        C  0.17232465  0.49293424  0.84888509    -0.10740
H310        H  0.11041995  0.46381950  0.81888861     0.08940
H311        H  0.15675928  0.43618997  0.89579071     0.06470
H312        H  0.18627823  0.51212760  0.84767604     0.06320
C313        C  0.03591736  0.65494606  0.82833785     0.03360
C314        C  0.06305407  0.65645372  0.84317451    -0.12790
C315        C  0.06359562  0.66250211  0.87334884     0.00860
C316        C  0.04080118  0.68016010  0.88415045    -0.11320
C317        C  0.01367437  0.68216254  0.86949949     0.03350
C318        C  0.01083698  0.66839042  0.84156706    -0.10740
H319        H  0.08208974  0.64586156  0.83367706     0.08940
H320        H  0.04201151  0.68796327  0.90658211     0.06470
H321        H  0.98949687  0.66704531  0.83101761     0.06320
C322        C  0.82385525  0.63598527  0.00329941     0.03360
C323        C  0.83689851  0.61627723  0.98335719    -0.12790
C324        C  0.86555235  0.62178531  0.97526621     0.00860
C325        C  0.87196542  0.65082920  0.96829482    -0.11320
C326        C  0.85837753  0.67323028  0.98465775     0.03350
C327        C  0.83447836  0.66555349  0.00357870    -0.10740
H328        H  0.82965017  0.59359240  0.98256778     0.08940
H329        H  0.89297021  0.65525213  0.95799443     0.06470
H330        H  0.82637454  0.68113718  0.01962121     0.06320
C331        C  0.98376567  0.42791977  0.29825032     0.02510
C332        C  0.96269580  0.42733780  0.27466848     0.02510
C333        C  0.94058819  0.44948777  0.27327052     0.02510
C334        C  0.94032136  0.47277634  0.29440978     0.02510
C335        C  0.96184813  0.47400404  0.31738461     0.02510
C336        C  0.98300177  0.45067835  0.32000976     0.02510
C337        C  0.29469331  0.44159922  0.00437747     0.02510
C338        C  0.27072998  0.43999704  0.98411148     0.02510
C339        C  0.26723825  0.46186118  0.96175767     0.02510
C340        C  0.28818407  0.48491831  0.95914317     0.02510
C341        C  0.31205563  0.48662396  0.97958539     0.02510
C342        C  0.31523208  0.46497736  0.00231249     0.02510
O343        O  0.47980287  0.96887617  0.96094073    -0.88120
C344        C  0.56032013  0.99933695  0.98750252     0.87910
Mg345      Mg  0.44221168  0.99684454  0.96551286     1.58150
O346        O  0.52836696  0.94483385  0.03064520    -0.87850
O347        O  0.49736633  0.92479810  0.97039681    -0.75180
C348        C  0.44261982  0.02128839  0.09745956     0.92960
O349        O  0.50568730  0.03587809  0.96245140    -0.74990
O350        O  0.43063758  0.03829424  0.07889704    -0.82500
Mg351      Mg  0.51582182  0.99057883  0.94162489     1.57960
C352        C  0.52777986  0.94961221  0.11665246     0.92880
O353        O  0.52978288  0.94775764  0.92156440    -0.80760
H354        H  0.51828943  0.90248029  0.03763613    -0.06100
C355        C  0.52118152  0.02832434  0.06028136     0.87820
O356        O  0.43285287  0.96551227  0.00588047    -0.75270
O357        O  0.54163345  0.98121157  0.97934668    -0.88030
O358        O  0.54732739  0.94653941  0.09709991    -0.80840
C359        C  0.59699544  0.92944097  0.02572552     0.93000
C360        C  0.55694145  0.94226807  0.92472575     0.92850
Mg361      Mg  0.48515323  0.97796613  0.08108046     1.57950
O362        O  0.47023560  0.02075034  0.09839289    -0.80770
O363        O  0.49706086  0.93174908  0.06382437    -0.75010
O364        O  0.58735191  0.94488895  0.00490017    -0.80850
O365        O  0.48506437  0.99929590  0.90412172    -0.82560
O366        O  0.41140902  0.01511183  0.01579328    -0.80880
C367        C  0.51484640  0.92526123  0.04354949     0.87290
O368        O  0.45991294  0.98415252  0.04185359    -0.88020
O369        O  0.51989944  0.00106052  0.05969566    -0.88130
O370        O  0.49917119  0.04423624  0.05260806    -0.75180
Mg371      Mg  0.54397595  0.93463475  0.98806794     1.57970
O372        O  0.59550693  0.93952395  0.05159547    -0.82560
H373        H  0.45663903  0.93232661  0.95315226    -0.06280
O374        O  0.47098752  0.02362216  0.99253806    -0.87830
H375        H  0.48518700  0.06519671  0.98911226    -0.06110
H376        H  0.43713025  0.94674016  0.04666073    -0.06280
C377        C  0.48699439  0.04263579  0.98184028     0.87270
C378        C  0.47696931  0.94176632  0.96098085     0.87850
C379        C  0.44343327  0.96459342  0.03215980     0.87900
H380        H  0.54113600  0.03878993  0.06775010    -0.06260
O381        O  0.56990325  0.99999918  0.01402414    -0.75290
Mg382      Mg  0.45309640  0.03062493  0.03453971     1.58000
H383        H  0.56880796  0.01497277  0.97168149    -0.06280
C384        C  0.47409802  0.02451168  0.90830323     0.92890
O385        O  0.40313839  0.02973198  0.97161277    -0.82520
C386        C  0.40011110  0.03353967  0.99891246     0.92950
O387        O  0.56425687  0.92303543  0.94347620    -0.82500
Mg388      Mg  0.55787568  0.97319988  0.05588811     1.58180
O389        O  0.45322167  0.02748260  0.92648504    -0.80840
O390        O  0.51499890  0.97403795  0.11968092    -0.82530
C391        C  0.37481064  0.17392378  0.01537025     0.03360
C392        C  0.38839944  0.16105003  0.04029189    -0.12790
C393        C  0.37427200  0.13942906  0.05688040     0.00860
C394        C  0.34423678  0.14384283  0.05973413    -0.11320
C395        C  0.32872155  0.15124555  0.03394146     0.03350
C396        C  0.34428713  0.16680539  0.01107292    -0.10740
H397        H  0.41052608  0.16635654  0.04632500     0.08940
H398        H  0.33311802  0.13174048  0.07704527     0.06470
H399        H  0.33312106  0.17270012  0.99072084     0.06320
C400        C  0.35574793  0.97989245  0.19352928     0.03360
C401        C  0.36143011  0.95329990  0.17911146    -0.12790
C402        C  0.36148825  0.95373189  0.14863707     0.00860
C403        C  0.33988442  0.97137070  0.13517940    -0.11320
C404        C  0.32892036  0.99688142  0.14868961     0.03350
C405        C  0.33890501  0.00222251  0.17826295    -0.10740
H406        H  0.37457457  0.93651100  0.19012502     0.08940
H407        H  0.33458775  0.96704774  0.11252960     0.06470
H408        H  0.33463483  0.02320555  0.18864259     0.06320
C409        C  0.54830713  0.14392717  0.84428405     0.03360
C410        C  0.55880331  0.12474964  0.86614811    -0.12790
C411        C  0.54629217  0.12620873  0.89398047     0.00860
C412        C  0.53804041  0.15329951  0.90447162    -0.11320
C413        C  0.52906658  0.17532136  0.88455247     0.03350
C414        C  0.53256181  0.16979787  0.85349390    -0.10740
H415        H  0.56841508  0.10396847  0.85926719     0.08940
H416        H  0.53123359  0.15427823  0.92737020     0.06470
H417        H  0.52286316  0.18452262  0.83724547     0.06320
C418        C  0.48290491  0.84197569  0.18992475     0.03360
C419        C  0.45920371  0.84860535  0.17123918    -0.12790
C420        C  0.46392489  0.84497467  0.14134998     0.00860
C421        C  0.47598579  0.81806970  0.13428157    -0.11320
C422        C  0.50022353  0.80739821  0.15090683     0.03350
C423        C  0.50458467  0.82109109  0.17945393    -0.10740
H424        H  0.44373650  0.86542365  0.17803034     0.08940
H425        H  0.47115143  0.81051692  0.11233874     0.06470
H426        H  0.52446285  0.81724742  0.19207959     0.06320
C427        C  0.65651827  0.01396748  0.84110939     0.03360
C428        C  0.64408687  0.03253152  0.86242423    -0.12790
C429        C  0.64538051  0.02407850  0.89199320     0.00860
C430        C  0.67141512  0.01025764  0.90046022    -0.11320
C431        C  0.68590080  0.99087095  0.88109142     0.03350
C432        C  0.67724636  0.99209124  0.85061600    -0.10740
H433        H  0.62693006  0.04782556  0.85563390     0.08940
H434        H  0.67847038  0.01224700  0.92312224     0.06470
H435        H  0.68539118  0.97620028  0.83496748     0.06320
C436        C  0.67261005  0.79177383  0.01671828     0.03360
C437        C  0.65193873  0.80200589  0.99591381    -0.12790
C438        C  0.65671876  0.82885106  0.98250408     0.00860
C439        C  0.68523703  0.83596050  0.97495619    -0.11320
C440        C  0.70852544  0.82524929  0.99239306     0.03350
C441        C  0.70184815  0.80373410  0.01504577    -0.10740
H442        H  0.62922560  0.79529944  0.99790029     0.08940
H443        H  0.68841673  0.85575362  0.96179532     0.06470
H444        H  0.71801059  0.79825196  0.03183164     0.06320
C445        C  0.47405724  0.94001181  0.27139528     0.02510
C446        C  0.45408349  0.96462624  0.27148506     0.02510
C447        C  0.45662050  0.98678425  0.29358452     0.02510
C448        C  0.47783816  0.98357831  0.31668118     0.02510
C449        C  0.49751020  0.95870513  0.31725063     0.02510
C450        C  0.49635705  0.93765230  0.29377666     0.02510
C451        C  0.44397188  0.29155503  0.99012321     0.02510
C452        C  0.44692096  0.26863357  0.96858790     0.02510
C453        C  0.47063076  0.26985083  0.94776373     0.02510
C454        C  0.48955184  0.29519255  0.94548905     0.02510
C455        C  0.49005926  0.31471077  0.97055256     0.02510
C456        C  0.46726083  0.31277934  0.99253222     0.02510
C457        C  0.55413357  0.51362187  0.19497881     0.02510
C458        C  0.57551657  0.51077467  0.21794008     0.02510
C459        C  0.57813824  0.53365454  0.23932324     0.02510
C460        C  0.55880022  0.55893705  0.23793538     0.02510
C461        C  0.53756224  0.56154150  0.21425110     0.02510
C462        C  0.53639505  0.53954789  0.19170969     0.02510
O463        O  0.34070679  0.46406920  0.32129294    -0.88120
C464        C  0.27286429  0.51754865  0.33227388     0.87910
Mg465      Mg  0.36873320  0.47050779  0.28525116     1.58150
O466        O  0.26603218  0.44860562  0.30016843    -0.87850
O467        O  0.31600207  0.42910371  0.34308753    -0.75180
C468        C  0.28836593  0.48988137  0.17527120     0.92960
O469        O  0.33673727  0.53549426  0.31104149    -0.74990
O470        O  0.31047501  0.50635232  0.17865524    -0.82500
Mg471      Mg  0.33340435  0.50184580  0.34820119     1.57960
C472        C  0.20505109  0.43499427  0.23441808     0.92880
O473        O  0.32726267  0.47098578  0.38642605    -0.80760
H474        H  0.26690940  0.40447247  0.30252752    -0.06100
C475        C  0.25593907  0.52019762  0.24811018     0.87820
O476        O  0.34297363  0.43814803  0.25734655    -0.75270
O477        O  0.28899304  0.49604565  0.33724374    -0.88030
O478        O  0.21031715  0.44320775  0.26041930    -0.80840
C479        C  0.20907778  0.47427374  0.33785767     0.93000
C480        C  0.30365922  0.47827404  0.39916129     0.92850
Mg481      Mg  0.26439094  0.45790442  0.22423200     1.57950
O482        O  0.26611859  0.49467100  0.19087275    -0.80770
O483        O  0.26459410  0.42122573  0.26070532    -0.75010
O484        O  0.22911214  0.47990143  0.35617568    -0.80850
O485        O  0.38155612  0.50749810  0.35776935    -0.82560
O486        O  0.36510775  0.48842516  0.21659874    -0.80880
C487        C  0.26617478  0.42393366  0.28867350     0.87290
O488        O  0.30810583  0.46499681  0.23630562    -0.88020
O489        O  0.25332905  0.49339910  0.25248991    -0.88130
O490        O  0.28018793  0.53113176  0.23975947    -0.75180
Mg491      Mg  0.27215310  0.45352362  0.34862596     1.57970
O492        O  0.21161871  0.45154260  0.32311083    -0.82560
H493        H  0.35864576  0.42468413  0.33070200    -0.06280
O494        O  0.33885905  0.50760578  0.27202620    -0.87830
H495        H  0.33951287  0.55155096  0.26931667    -0.06110
H496        H  0.31474671  0.42256856  0.22662510    -0.06280
C497        C  0.33845015  0.53224851  0.28336661     0.87270
C498        C  0.33948024  0.43879301  0.33160832     0.87850
C499        C  0.32194778  0.44148032  0.23904453     0.87900
H500        H  0.23740253  0.53462730  0.25195351    -0.06260
O501        O  0.25048613  0.51545480  0.31548373    -0.75290
Mg502      Mg  0.32406277  0.50860225  0.22783483     1.58000
H503        H  0.27769478  0.53840426  0.34256187    -0.06280
C504        C  0.39634476  0.51627550  0.33580118     0.92890
O505        O  0.40045408  0.47294596  0.24599680    -0.82520
C506        C  0.39005192  0.47693005  0.22023391     0.92950
O507        O  0.28247365  0.46029509  0.39798988    -0.82500
Mg508      Mg  0.23125240  0.47676595  0.28767946     1.58180
O509        O  0.39573010  0.50281224  0.31120612    -0.80840
O510        O  0.21777929  0.44624729  0.21232579    -0.82530
C511        C  0.29718287  0.35153551  0.09352562     0.03360
C512        C  0.31224626  0.36761736  0.11481171    -0.12790
C513        C  0.30034470  0.36936948  0.14282052     0.00860
C514        C  0.28119905  0.34754271  0.15246477    -0.11320
C515        C  0.27192070  0.32492631  0.13340950     0.03350
C516        C  0.27813089  0.32864079  0.10278991    -0.10740
H517        H  0.32623599  0.38552818  0.10747798     0.08940
H518        H  0.27175677  0.34972301  0.17425263     0.06470
H519        H  0.26797773  0.31496153  0.08625375     0.06320
C520        C  0.42344707  0.47608088  0.06943019     0.03360
C521        C  0.43981507  0.50098076  0.07950826    -0.12790
C522        C  0.46020411  0.49745532  0.10335331     0.00860
C523        C  0.46196977  0.46992538  0.11733067    -0.11320
C524        C  0.44049867  0.44876881  0.11227934     0.03350
C525        C  0.42631910  0.44928695  0.08497031    -0.10740
H526        H  0.43589802  0.52255424  0.06992070     0.08940
H527        H  0.47406829  0.46873123  0.13781107     0.06470
H528        H  0.41076291  0.43182113  0.08047908     0.06320
C529        C  0.07752737  0.34519560  0.27572725     0.03360
C530        C  0.10308213  0.35755151  0.28762894    -0.12790
C531        C  0.13038344  0.34864539  0.27736230     0.00860
C532        C  0.13253787  0.32104476  0.26467784    -0.11320
C533        C  0.10832362  0.30874664  0.25014379     0.03350
C534        C  0.08005968  0.32105435  0.25571776    -0.10740
H535        H  0.10158606  0.37814890  0.29960078     0.08940
H536        H  0.15408832  0.31279153  0.25934903     0.06470
H537        H  0.06100483  0.31331395  0.24373047     0.06320
C538        C  0.07399794  0.46552510  0.40615037     0.03360
C539        C  0.09551183  0.46196689  0.38462750    -0.12790
C540        C  0.12086635  0.47804695  0.38729978     0.00860
C541        C  0.13150986  0.48353918  0.41526599    -0.11320
C542        C  0.11306465  0.48312268  0.43963729     0.03350
C543        C  0.08263662  0.47649716  0.43463668    -0.10740
H544        H  0.08906809  0.45378468  0.36315582     0.08940
H545        H  0.15403989  0.49073265  0.41768802     0.06470
H546        H  0.06655172  0.48003202  0.45175214     0.06320
C547        C  0.40874112  0.66984578  0.27791296     0.03360
C548        C  0.42784587  0.65869891  0.25568336    -0.12790
C549        C  0.44891998  0.63665795  0.26329606     0.00860
C550        C  0.45018578  0.62703544  0.29277241    -0.11320
C551        C  0.42774589  0.63381753  0.31259457     0.03350
C552        C  0.40979136  0.65778179  0.30646639    -0.10740
H553        H  0.42531216  0.66586757  0.23296648     0.08940
H554        H  0.46393873  0.60816450  0.29789603     0.06470
H555        H  0.39250173  0.66305605  0.32200201     0.06320
C556        C  0.25951779  0.64896791  0.38967079     0.03360
C557        C  0.27737459  0.62361233  0.38745164    -0.12790
C558        C  0.27659015  0.60204894  0.40959845     0.00860
C559        C  0.26100066  0.60760730  0.43526328    -0.11320
C560        C  0.23854922  0.62851523  0.43531961     0.03350
C561        C  0.23808296  0.65022853  0.41257270    -0.10740
H562        H  0.29063565  0.62013090  0.36798169     0.08940
H563        H  0.26168939  0.59112885  0.45276525     0.06470
H564        H  0.22143270  0.66734174  0.41243996     0.06320
C565        C  0.23575283  0.55827149  0.54504030     0.02510
C566        C  0.23988113  0.53800415  0.56892109     0.02510
C567        C  0.22076594  0.51348319  0.57240192     0.02510
C568        C  0.19683192  0.50894434  0.55248277     0.02510
C569        C  0.19213601  0.52955350  0.52861958     0.02510
C570        C  0.21055890  0.55524855  0.52561252     0.02510
O571        O  0.58349350  0.20601978  0.18754523    -0.88120
C572        C  0.57521445  0.25034470  0.26478816     0.87910
Mg573      Mg  0.55156902  0.20807697  0.15305703     1.58150
O574        O  0.55982713  0.17483096  0.26675687    -0.87850
O575        O  0.60629093  0.17251772  0.21444490    -0.75180
C576        C  0.42863246  0.21368902  0.22352458     0.92960
O577        O  0.55991475  0.27446587  0.20298341    -0.74990
O578        O  0.43924321  0.22573255  0.20070841    -0.82500
Mg579      Mg  0.60046878  0.24749970  0.20538417     1.57960
C580        C  0.48272142  0.15410466  0.31324478     0.92880
O581        O  0.64274253  0.22323216  0.21223206    -0.80760
H582        H  0.56941748  0.13206877  0.26154357    -0.06100
C583        C  0.49132455  0.23316074  0.26724586     0.87820
O584        O  0.52637261  0.16881784  0.17138860    -0.75270
O585        O  0.58577878  0.23193216  0.24770182    -0.88030
O586        O  0.51023219  0.15877556  0.31287785    -0.80840
C587        C  0.58942441  0.20652249  0.33207593     0.93000
C588        C  0.65062353  0.23018327  0.23813287     0.92850
Mg589      Mg  0.48456570  0.17136036  0.24677666     1.57950
O590        O  0.44362625  0.19652910  0.23994670    -0.80770
O591        O  0.52675529  0.14292818  0.25297567    -0.75010
O592        O  0.60418941  0.20778151  0.30844721    -0.80850
O593        O  0.61093018  0.26436061  0.15883530    -0.82560
O594        O  0.49768519  0.22059603  0.15466721    -0.80880
C595        C  0.55295791  0.14929808  0.26047083     0.87290
O596        O  0.49930222  0.18639530  0.20702984    -0.88020
O597        O  0.50364767  0.20903261  0.26494266    -0.88130
O598        O  0.48460640  0.24800756  0.24449262    -0.75180
Mg599      Mg  0.60438025  0.19044356  0.26201988     1.57970
O600        O  0.56527253  0.19325370  0.33379367    -0.82560
H601        H  0.60140300  0.16987804  0.16990455    -0.06280
O602        O  0.53199297  0.23842601  0.18954085    -0.87830
H603        H  0.51657234  0.27934868  0.19510999    -0.06110
H604        H  0.49598743  0.14484215  0.19321067    -0.06280
C605        C  0.53532138  0.26465069  0.19547067     0.87270
C606        C  0.59726636  0.18248390  0.18963624     0.87850
C607        C  0.50626152  0.16607563  0.19038355     0.87900
H608        H  0.48724759  0.24214121  0.28890136    -0.06260
O609        O  0.55672911  0.24332131  0.28448616    -0.75290
Mg610      Mg  0.48808686  0.23211446  0.19706163     1.58000
H611        H  0.58151826  0.27313868  0.26266143    -0.06280
C612        C  0.58865006  0.26507635  0.14159607     0.92890
O613        O  0.51485002  0.20719414  0.11407563    -0.82520
C614        C  0.49247504  0.21142046  0.12975351     0.92950
O615        O  0.65104762  0.21000766  0.25763379    -0.82500
Mg616      Mg  0.53401997  0.20009435  0.29738974     1.58180
O617        O  0.58078815  0.24145408  0.12933764    -0.80840
O618        O  0.46701511  0.15772048  0.29041849    -0.82530
C619        C  0.36292747  0.24138825  0.07152009     0.03360
C620        C  0.38049701  0.21635916  0.07573240    -0.12790
C621        C  0.37590901  0.19722657  0.09936404     0.00860
C622        C  0.34885971  0.19717813  0.11327875    -0.11320
C623        C  0.32808560  0.21935905  0.10719921     0.03350
C624        C  0.33569950  0.24272312  0.08711500    -0.10740
H625        H  0.40173970  0.21549958  0.06500348     0.08940
H626        H  0.34557536  0.18222253  0.13173099     0.06470
H627        H  0.32167038  0.26194974  0.08500246     0.06320
C628        C  0.47992309  0.06584291  0.41450793     0.03360
C629        C  0.45141899  0.07757960  0.41497780    -0.12790
C630        C  0.44786671  0.10695278  0.42262014     0.00860
C631        C  0.46520036  0.11565525  0.44662787    -0.11320
C632        C  0.49491483  0.10614412  0.44796790     0.03350
C633        C  0.50248411  0.08101892  0.43037775    -0.10740
H634        H  0.43476724  0.06738538  0.40144009     0.08940
H635        H  0.45784107  0.13464963  0.45885646     0.06470
H636        H  0.52506086  0.07385213  0.42836792     0.06320
C637        C  0.37962251  0.08793567  0.27007882     0.03360
C638        C  0.39487309  0.11408406  0.27646007    -0.12790
C639        C  0.37924491  0.13971040  0.28235377     0.00860
C640        C  0.34978490  0.13630455  0.28813600    -0.11320
C641        C  0.33447237  0.11886525  0.26832927     0.03350
C642        C  0.34887193  0.09118819  0.26218549    -0.10740
H643        H  0.41853003  0.11519329  0.27532264     0.08940
H644        H  0.33871540  0.15388199  0.29916909     0.06470
H645        H  0.33743999  0.07367253  0.25092545     0.06320
C646        C  0.63976569  0.40341275  0.25603303     0.03360
C647        C  0.62619202  0.37532965  0.25566723    -0.12790
C648        C  0.63810280  0.35156448  0.27204176     0.00860
C649        C  0.66217528  0.35660207  0.29019161    -0.11320
C650        C  0.68067738  0.37988363  0.28351120     0.03350
C651        C  0.66910694  0.40441168  0.26745297    -0.10740
H652        H  0.60723998  0.37151146  0.24167510     0.08940
H653        H  0.67144144  0.33819411  0.30262118     0.06470
H654        H  0.68280669  0.42344004  0.26371982     0.06320
C655        C  0.69214661  0.28117252  0.41111810     0.03360
C656        C  0.66746534  0.29759287  0.40167863    -0.12790
C657        C  0.63987733  0.28884192  0.41116822     0.00860
C658        C  0.63849484  0.27938762  0.44025865    -0.11320
C659        C  0.66018143  0.25921319  0.44989385     0.03350
C660        C  0.68828380  0.26076653  0.43544911    -0.10740
H661        H  0.66860529  0.31041048  0.38144554     0.08940
H662        H  0.61677052  0.27813177  0.44969022     0.06470
H663        H  0.70526656  0.24477771  0.44068234     0.06320
C664        C  0.50967255  0.40865554  0.13878876     0.03360
C665        C  0.50125967  0.40441067  0.10874312    -0.12790
C666        C  0.48755398  0.37757021  0.10081003     0.00860
C667        C  0.48189000  0.35715933  0.12324822    -0.11320
C668        C  0.50031070  0.35693826  0.14795674     0.03350
C669        C  0.50862571  0.38452871  0.15831292    -0.10740
H670        H  0.50539328  0.42118786  0.09223419     0.08940
H671        H  0.46998891  0.33767751  0.11714755     0.06470
H672        H  0.51867830  0.38621662  0.17999701     0.06320
C673        C  0.55825143  0.22404369  0.57428371     0.02510
C674        C  0.58040189  0.22476572  0.55196668     0.02510
C675        C  0.58156358  0.20284896  0.52900020     0.02510
C676        C  0.55907127  0.18046372  0.52882020     0.02510
C677        C  0.53806746  0.17871345  0.55243064     0.02510
C678        C  0.53705575  0.20110918  0.57439405     0.02510
O679        O  0.30596398  0.24786021  0.49056492    -0.88120
C680        C  0.27150654  0.16643308  0.50495176     0.87910
Mg681      Mg  0.33036822  0.26998084  0.52462575     1.58150
O682        O  0.22275172  0.22378241  0.48935460    -0.87850
O683        O  0.27447416  0.25052748  0.45378191    -0.75180
C684        C  0.23463156  0.27614624  0.61930916     0.92960
O685        O  0.32709046  0.19456910  0.53341457    -0.74990
O686        O  0.26116134  0.27126322  0.62609652    -0.82500
Mg687      Mg  0.32060561  0.20427454  0.48434096     1.57960
C688        C  0.15855250  0.24415624  0.53574816     0.92880
O689        O  0.31561520  0.21244694  0.43593172    -0.80760
H690        H  0.21017726  0.25755142  0.46356214    -0.06100
C691        C  0.23661856  0.20108804  0.57480861     0.87820
O692        O  0.29016896  0.30047178  0.52955118    -0.75270
O693        O  0.27674092  0.18947993  0.49105701    -0.88030
O694        O  0.16339557  0.22293487  0.51817263    -0.80840
C695        C  0.19725541  0.16592212  0.46003797     0.93000
C696        C  0.30554980  0.19084420  0.42214190     0.92850
Mg697      Mg  0.21487746  0.26041763  0.55790798     1.57950
O698        O  0.22006094  0.25608067  0.60678988    -0.80770
O699        O  0.21054789  0.26678262  0.50738404    -0.75010
O700        O  0.22482476  0.16305325  0.46156994    -0.80850
O701        O  0.36516242  0.22272954  0.47866638    -0.82560
O702        O  0.31597260  0.29044573  0.58773979    -0.80880
C703        C  0.21415180  0.24946287  0.48573563     0.87290
O704        O  0.25960427  0.27301811  0.55495992    -0.88020
O705        O  0.22751279  0.21571802  0.55349260    -0.88130
O706        O  0.25815283  0.20970958  0.59044605    -0.75180
Mg707      Mg  0.24969686  0.20568487  0.45691322     1.57970
O708        O  0.18286915  0.16416479  0.48377403    -0.82560
H709        H  0.30269288  0.28355143  0.46444514    -0.06280
O710        O  0.31139131  0.23541559  0.55308073    -0.87830
H711        H  0.32596261  0.20129977  0.57745295    -0.06110
H712        H  0.24922033  0.31381330  0.54131275    -0.06280
C713        C  0.32171451  0.21029137  0.55574797     0.87270
C714        C  0.29477917  0.26173437  0.46964820     0.87850
C715        C  0.26551790  0.29640664  0.54205454     0.87900
H716        H  0.22619689  0.18039587  0.58009419    -0.06260
O717        O  0.24678212  0.16219227  0.51749841    -0.75290
Mg718      Mg  0.28662654  0.25147592  0.58864452     1.58000
H719        H  0.28829125  0.14954789  0.50649097    -0.06280
C720        C  0.37740667  0.22068904  0.50350947     0.92890
O721        O  0.35492308  0.29400791  0.56158632    -0.82520
C722        C  0.34292569  0.28463423  0.58477385     0.92950
O723        O  0.27883961  0.18396648  0.42437051    -0.82500
Mg724      Mg  0.20478797  0.19166463  0.51982095     1.58180
O725        O  0.37114254  0.23960550  0.52295825    -0.80840
O726        O  0.16961364  0.24290821  0.56128926    -0.82530
C727        C  0.12885284  0.40822910  0.51625305     0.03360
C728        C  0.09797967  0.40402057  0.51275375    -0.12790
C729        C  0.08736759  0.38171734  0.49361057     0.00860
C730        C  0.10723942  0.36319440  0.47945045    -0.11320
C731        C  0.13575916  0.36156867  0.49002540     0.03350
C732        C  0.14741470  0.38690406  0.50276593    -0.10740
H733        H  0.08236194  0.41642416  0.52559004     0.08940
H734        H  0.09853755  0.34461988  0.46727301     0.06470
H735        H  0.17097356  0.38722420  0.50494685     0.06320
C736        C  0.09866409  0.26878211  0.38054761     0.03360
C737        C  0.10064177  0.26062194  0.34994943    -0.12790
C738        C  0.12870823  0.25323085  0.33793307     0.00860
C739        C  0.15264472  0.25034839  0.35682287    -0.11320
C740        C  0.14985153  0.25526427  0.38648603     0.03350
C741        C  0.12532211  0.27031577  0.39647157    -0.10740
H742        H  0.08137696  0.25921400  0.33603463     0.08940
H743        H  0.17247263  0.23982553  0.34877193     0.06470
H744        H  0.12606088  0.27770083  0.41903878     0.06320
C745        C  0.40389085  0.22657460  0.69268206     0.03360
C746        C  0.43356913  0.23019735  0.68238841    -0.12790
C747        C  0.44546149  0.20924117  0.66165983     0.00860
C748        C  0.42642299  0.18832397  0.64929714    -0.11320
C749        C  0.39649556  0.19259159  0.65273420     0.03350
C750        C  0.38877389  0.20246916  0.68044685    -0.10740
H751        H  0.44676131  0.24860406  0.68942219     0.08940
H752        H  0.43363663  0.17552564  0.63048732     0.06470
H753        H  0.36803052  0.19497105  0.68880496     0.06320
C754        C  0.29100554  0.06861437  0.35196659     0.03360
C755        C  0.31905955  0.08087589  0.35260228    -0.12790
C756        C  0.32229433  0.11117666  0.34932011     0.00860
C757        C  0.29932892  0.12740909  0.33573491    -0.11320
C758        C  0.27205628  0.11444163  0.32853249     0.03350
C759        C  0.26742255  0.08513939  0.33909233    -0.10740
H760        H  0.33679436  0.06864251  0.36322281     0.08940
H761        H  0.30231656  0.15075250  0.33247459     0.06470
H762        H  0.24566374  0.07570018  0.33846138     0.06320
C763        C  0.40801534  0.06446078  0.50682054     0.03360
C764        C  0.43865652  0.07147709  0.50971048    -0.12790
C765        C  0.44807612  0.09028392  0.53337549     0.00860
C766        C  0.42694253  0.09948800  0.55367716    -0.11320
C767        C  0.39840360  0.10223838  0.54320451     0.03350
C768        C  0.38828994  0.07978694  0.52512408    -0.10740
H769        H  0.45415272  0.06408905  0.49327842     0.08940
H770        H  0.43380483  0.11457764  0.57087057     0.06470
H771        H  0.36492842  0.07893418  0.52088918     0.06320
C772        C  0.24286122  0.43206277  0.66455098     0.03360
C773        C  0.22030312  0.41407848  0.65398505    -0.12790
C774        C  0.22067497  0.38433623  0.65994114     0.00860
C775        C  0.24056810  0.37320682  0.68093985    -0.11320
C776        C  0.26338582  0.39041263  0.69273186     0.03350
C777        C  0.26479444  0.42037392  0.68388727    -0.10740
H778        H  0.20566324  0.42214734  0.63667298     0.08940
H779        H  0.24008201  0.34972233  0.68533318     0.06470
H780        H  0.28330867  0.43377504  0.69038373     0.06320
C781        C  0.21335727  0.22634228  0.19128753     0.02510
C782        C  0.23401369  0.20248500  0.19252120     0.02510
C783        C  0.23343000  0.18203708  0.21674422     0.02510
C784        C  0.21301933  0.18645554  0.24040176     0.02510
C785        C  0.19162021  0.20975303  0.23808556     0.02510
C786        C  0.18967652  0.22806987  0.21200608     0.02510
C787        C  0.23906222  0.04092864  0.06868022     0.02510
C788        C  0.23852245  0.06203775  0.04490450     0.02510
C789        C  0.21591984  0.06079312  0.02263796     0.02510
C790        C  0.19297000  0.03902365  0.02443381     0.02510
C791        C  0.19581236  0.01608784  0.04633495     0.02510
C792        C  0.21806391  0.01741505  0.06877249     0.02510
C793        C  0.80838654  0.41953678  0.48805135     0.02510
C794        C  0.78523048  0.42118619  0.46614507     0.02510
C795        C  0.78520570  0.44387643  0.44399431     0.02510
C796        C  0.80848474  0.46504490  0.44308513     0.02510
C797        C  0.82998905  0.46506288  0.46640824     0.02510
C798        C  0.83030504  0.44214964  0.48870141     0.02510
C799        C  0.44469783  0.47542851  0.80511915     0.02510
C800        C  0.44368259  0.45417320  0.78153999     0.02510
C801        C  0.46507860  0.43053847  0.78041813     0.02510
C802        C  0.48788990  0.42938896  0.80249490     0.02510
C803        C  0.48929608  0.45094292  0.82515973     0.02510
C804        C  0.46846887  0.47435123  0.82597245     0.02510
C805        C  0.47567287  0.75965922  0.45130093     0.02510
C806        C  0.45148239  0.75928993  0.47193894     0.02510
C807        C  0.45001366  0.78126774  0.49490433     0.02510
C808        C  0.47304149  0.80275731  0.49770311     0.02510
C809        C  0.49791413  0.80125565  0.47870095     0.02510
C810        C  0.49884632  0.78043073  0.45538982     0.02510
C811        C  0.82157883  0.78406616  0.77710647     0.02510
C812        C  0.80086585  0.80778022  0.77600571     0.02510
C813        C  0.78148156  0.81258166  0.80038708     0.02510
C814        C  0.77918484  0.79092779  0.82357414     0.02510
C815        C  0.79652202  0.76448999  0.82163814     0.02510
C816        C  0.82006686  0.76303759  0.80077128     0.02510
C817        C  0.06657855  0.51207167  0.72620933     0.02510
C818        C  0.06733778  0.53597418  0.74687072     0.02510
C819        C  0.04476635  0.55786427  0.74524694     0.02510
C820        C  0.02270644  0.55604233  0.72285087     0.02510
C821        C  0.02236542  0.53244533  0.70235760     0.02510
C822        C  0.04463279  0.51060586  0.70360862     0.02510
C823        C  0.07041033  0.72528867  0.54268382     0.02510
C824        C  0.04687106  0.72664858  0.56383368     0.02510
C825        C  0.02393711  0.70502851  0.56265232     0.02510
C826        C  0.02411100  0.68277350  0.54045061     0.02510
C827        C  0.04783860  0.68067129  0.52020265     0.02510
C828        C  0.07100953  0.70173931  0.52156289     0.02510
O829        O  0.74109728  0.72029179  0.55789482    -0.88120
C830        C  0.82316057  0.75673305  0.55109492     0.87910
Mg831      Mg  0.72576932  0.68819404  0.52669826     1.58150
O832        O  0.76744898  0.80259048  0.52815072    -0.87850
O833        O  0.72738156  0.76514016  0.56940832    -0.75180
C834        C  0.74434402  0.75267652  0.40490704     0.92960
O835        O  0.80273738  0.69591606  0.53285236    -0.74990
O836        O  0.74280214  0.72503490  0.40865483    -0.82500
Mg837      Mg  0.78544933  0.71376521  0.57623453     1.57960
C838        C  0.76490098  0.85024027  0.46083239     0.92880
O839        O  0.77266268  0.73332749  0.62070903    -0.80760
H840        H  0.73061904  0.82303802  0.53969345    -0.06100
C841        C  0.80855490  0.76075664  0.46164362     0.87820
O842        O  0.70132460  0.72602718  0.50202739    -0.75270
O843        O  0.79788496  0.75613885  0.56130024    -0.88030
O844        O  0.78521608  0.84910036  0.48014037    -0.80840
C845        C  0.82106449  0.84308638  0.56325484     0.93000
C846        C  0.78181453  0.75900899  0.62722781     0.92850
Mg847      Mg  0.74885655  0.78797077  0.45615595     1.57950
O848        O  0.76584296  0.76599371  0.41582277    -0.80770
O849        O  0.73088962  0.80902115  0.49737053    -0.75010
O850        O  0.80966848  0.82264856  0.57907355    -0.80850
O851        O  0.77165444  0.66791215  0.58965802    -0.82560
O852        O  0.71379706  0.68765410  0.46021580    -0.80880
C853        C  0.74276828  0.81234383  0.52242017     0.87290
O854        O  0.73421399  0.74746830  0.47401065    -0.88020
O855        O  0.79098924  0.77748950  0.47409440    -0.88130
O856        O  0.80089145  0.73527229  0.45282847    -0.75180
Mg857      Mg  0.76907133  0.79262040  0.57285284     1.57970
O858        O  0.82293805  0.84164556  0.53544891    -0.82560
H859        H  0.69952806  0.73058683  0.56733125    -0.06280
O860        O  0.76616338  0.69768597  0.50109728    -0.87830
H861        H  0.80651301  0.68358635  0.49039828    -0.06110
H862        H  0.69272701  0.76213133  0.47672347    -0.06280
C863        C  0.79209224  0.69185841  0.50730726     0.87270
C864        C  0.72194947  0.73806096  0.56551323     0.87850
C865        C  0.70889924  0.74604176  0.48383303     0.87900
H866        H  0.83084728  0.76797126  0.45809928    -0.06260
O867        O  0.83045887  0.77329403  0.52968236    -0.75290
Mg868      Mg  0.75640990  0.71071674  0.45576805     1.58000
H869        H  0.83929058  0.74137800  0.55962734    -0.06280
C870        C  0.76823594  0.65016052  0.56828831     0.92890
O871        O  0.71342878  0.65237355  0.49254420    -0.82520
C872        C  0.71727479  0.66082542  0.46621280     0.92950
O873        O  0.76541082  0.78068624  0.62135647    -0.82500
Mg874      Mg  0.80716096  0.80933353  0.50361017     1.58180
O875        O  0.74413662  0.65004253  0.55434025    -0.80840
O876        O  0.76481357  0.83156122  0.44015885    -0.82530
C877        C  0.59864766  0.87652394  0.50474677     0.03360
C878        C  0.62621234  0.86298242  0.49992799    -0.12790
C879        C  0.65208833  0.87595316  0.51039670     0.00860
C880        C  0.64949154  0.90020609  0.52876978    -0.11320
C881        C  0.62460908  0.91809149  0.52692130     0.03350
C882        C  0.59821581  0.90587960  0.51576715    -0.10740
H883        H  0.62750702  0.84264559  0.48757461     0.08940
H884        H  0.66899930  0.91027192  0.53777847     0.06470
H885        H  0.57815194  0.91876198  0.51567325     0.06320
C886        C  0.78087557  0.56434569  0.36275309     0.03360
C887        C  0.79600976  0.58936001  0.37236647    -0.12790
C888        C  0.78224849  0.61632091  0.36919779     0.00860
C889        C  0.76719101  0.62140609  0.34302683    -0.11320
C890        C  0.75299347  0.59807787  0.32854208     0.03350
C891        C  0.75920300  0.56857962  0.33945266    -0.10740
H892        H  0.81242283  0.58729593  0.38971240     0.08940
H893        H  0.76093499  0.64398737  0.33829931     0.06470
H894        H  0.74655474  0.55012107  0.33149609     0.06320
C895        C  0.92404435  0.61355531  0.50243807     0.03360
C896        C  0.92212288  0.58393650  0.49225524    -0.12790
C897        C  0.89411251  0.57228031  0.48477266     0.00860
C898        C  0.86935447  0.59036360  0.48740614    -0.11320
C899        C  0.87072702  0.61625874  0.50348581     0.03350
C900        C  0.89797369  0.62895544  0.50841173    -0.10740
H901        H  0.94162001  0.57028907  0.49081579     0.08940
H902        H  0.84811202  0.58092393  0.48238398     0.06470
H903        H  0.89890809  0.65032007  0.51889790     0.06320
C904        C  0.59239406  0.77433462  0.37037824     0.03360
C905        C  0.61150352  0.79645402  0.37998839    -0.12790
C906        C  0.64008822  0.79724012  0.36980213     0.00860
C907        C  0.64720857  0.78057658  0.34525442    -0.11320
C908        C  0.63058690  0.75621021  0.33655489     0.03350
C909        C  0.60217367  0.75329766  0.34919013    -0.10740
H910        H  0.60584692  0.80961767  0.39908180     0.08940
H911        H  0.66823416  0.78445589  0.33549066     0.06470
H912        H  0.58845849  0.73471615  0.34365003     0.06320
C913        C  0.93635960  0.75304935  0.64134483     0.03360
C914        C  0.92626282  0.74617573  0.67078975    -0.12790
C915        C  0.90947111  0.76787442  0.68658596     0.00860
C916        C  0.90323460  0.79442768  0.67215491    -0.11320
C917        C  0.90183163  0.79355434  0.64158996     0.03350
C918        C  0.92533777  0.77948208  0.62857707    -0.10740
H919        H  0.93049098  0.72484839  0.68072023     0.08940
H920        H  0.88973799  0.81051361  0.68346728     0.06470
H921        H  0.93110663  0.78697823  0.60674708     0.06320
C922        C  0.74720752  0.87466146  0.67938709     0.03360
C923        C  0.74734199  0.85898372  0.65267891    -0.12790
C924        C  0.74585082  0.87446693  0.62638765     0.00860
C925        C  0.72675015  0.89815724  0.62600747    -0.11320
C926        C  0.72852204  0.91734119  0.65006745     0.03350
C927        C  0.73961862  0.90554298  0.67760085    -0.10740
H928        H  0.75694556  0.83734086  0.65170329     0.08940
H929        H  0.71995667  0.90693593  0.60470063     0.06470
H930        H  0.74321481  0.91985897  0.69627418     0.06320
C931        C  0.69104587  0.70060426  0.23865213     0.02510
C932        C  0.71052805  0.67531891  0.23958778     0.02510
C933        C  0.73674075  0.67685165  0.22180132     0.02510
C934        C  0.74107226  0.69981171  0.20035356     0.02510
C935        C  0.72085213  0.72411696  0.19897068     0.02510
C936        C  0.69496251  0.72375568  0.21693205     0.02510
C937        C  0.80505376  0.96844073  0.94481771     0.02510
C938        C  0.78354311  0.94526039  0.94839997     0.02510
C939        C  0.78634244  0.92441613  0.97240126     0.02510
C940        C  0.80895489  0.92838407  0.99397392     0.02510
C941        C  0.82962584  0.95189296  0.99084551     0.02510
C942        C  0.82971210  0.97053581  0.96494183     0.02510
C943        C  0.71593888  0.51587235  0.07329172     0.02510
C944        C  0.73955896  0.53609435  0.07123713     0.02510
C945        C  0.73799006  0.56033818  0.05075126     0.02510
C946        C  0.71493695  0.56103159  0.02873066     0.02510
C947        C  0.69253878  0.53888895  0.02910757     0.02510
C948        C  0.69260132  0.51703840  0.05215660     0.02510
O949        O  0.75940689  0.17915553  0.00462712    -0.88120
C950        C  0.68518223  0.22358332  0.01864803     0.87910
Mg951      Mg  0.78517941  0.16421986  0.04136271     1.58150
O952        O  0.74637280  0.25655782  0.98421283    -0.87850
O953        O  0.75988173  0.19643281  0.95968641    -0.75180
C954        C  0.79932692  0.28409988  0.11344643     0.92960
O955        O  0.71595697  0.17430588  0.06082616    -0.74990
O956        O  0.80585741  0.25758725  0.11979678    -0.82500
Mg957      Mg  0.71433509  0.16542467  0.01030011     1.57960
C958        C  0.75877015  0.33587433  0.01673091     0.92880
O959        O  0.70802672  0.15604251  0.96253687    -0.80760
H960        H  0.77471076  0.25907240  0.95059246    -0.06100
C961        C  0.73580684  0.27171622  0.06950380     0.87820
O962        O  0.82090706  0.19837024  0.03070402    -0.75270
O963        O  0.70389840  0.21068346  0.00366595    -0.88030
O964        O  0.75620041  0.31766930  0.99627423    -0.80840
C965        C  0.67371096  0.28262861  0.96475060     0.93000
C966        C  0.69750069  0.16763815  0.93925787     0.92850
Mg967      Mg  0.79367916  0.28328639  0.04001918     1.57950
O968        O  0.79524037  0.29262334  0.08713262    -0.80770
O969        O  0.79162017  0.27249028  0.98995098    -0.75010
O970        O  0.68202443  0.25633353  0.96103902    -0.80850
O971        O  0.73046620  0.11654612  0.01239624    -0.82560
O972        O  0.82190941  0.19221058  0.09697000    -0.80880
C973        C  0.77086650  0.26247262  0.97385860     0.87290
O974        O  0.80282358  0.23850237  0.05012791    -0.88020
O975        O  0.74841502  0.27182561  0.04545616    -0.88130
O976        O  0.74404484  0.25458537  0.09009905    -0.75180
Mg977      Mg  0.72012334  0.22673725  0.96178134     1.57970
O978        O  0.69059228  0.30196706  0.97517388    -0.82560
H979        H  0.79192213  0.17017805  0.97626624    -0.06280
O980        O  0.75975420  0.19287850  0.06739942    -0.87830
H981        H  0.73150369  0.18770462  0.10073525    -0.06110
H982        H  0.84205222  0.23769146  0.03037862    -0.06280
C983        C  0.73571210  0.18525419  0.07741014     0.87270
C984        C  0.77124956  0.18109349  0.98020275     0.87850
C985        C  0.82280087  0.22555467  0.03700378     0.87900
H986        H  0.71699596  0.28592617  0.07277370    -0.06260
O987        O  0.68717518  0.25100626  0.02419197    -0.75290
Mg988      Mg  0.78350401  0.22337995  0.09173738     1.58000
H989        H  0.66683559  0.21130449  0.02729149    -0.06280
C990        C  0.75079700  0.11363850  0.03124021     0.92890
O991        O  0.81264154  0.14771384  0.07887600    -0.82520
C992        C  0.82873725  0.16530876  0.09306024     0.92950
O993        O  0.69294873  0.19495368  0.93646863    -0.82500
Mg994      Mg  0.72166562  0.28584473  0.01035117     1.58180
O995        O  0.75106524  0.13113242  0.05242770    -0.80840
O996        O  0.78020256  0.33265539  0.03436120    -0.82530
C997        C  0.61084479  0.23616372  0.83818878     0.03360
C998        C  0.58451845  0.25383367  0.83550268    -0.12790
C999        C  0.56588880  0.25740890  0.86078541     0.00860
C1000       C  0.57371625  0.24214661  0.88651509    -0.11320
C1001       C  0.60286602  0.23518262  0.89089151     0.03350
C1002       C  0.61939016  0.22688545  0.86663721    -0.10740
H1003       H  0.57983405  0.26575059  0.81524076     0.08940
H1004       H  0.56134777  0.24683997  0.90622575     0.06470
H1005       H  0.64138162  0.21835902  0.87051084     0.06320
C1006       C  0.73286377  0.08118140  0.82054348     0.03360
C1007       C  0.75599549  0.06576117  0.83602587    -0.12790
C1008       C  0.74933160  0.04956710  0.86241040     0.00860
C1009       C  0.72044481  0.05200664  0.87314609    -0.11320
C1010       C  0.70084813  0.07233672  0.86091004     0.03350
C1011       C  0.70418508  0.07917290  0.83141944    -0.10740
H1012       H  0.77853851  0.06808176  0.82899355     0.08940
H1013       H  0.71551755  0.04414134  0.89502917     0.06470
H1014       H  0.68708647  0.09285080  0.82153555     0.06320
C1015       C  0.92283993  0.10599326  0.01894379     0.03360
C1016       C  0.92623479  0.08009458  0.00126698    -0.12790
C1017       C  0.90316398  0.05903279  0.99993695     0.00860
C1018       C  0.87901903  0.06308389  0.01815088    -0.11320
C1019       C  0.87247916  0.09054690  0.02931142     0.03350
C1020       C  0.89471254  0.11178099  0.03090500    -0.10740
H1021       H  0.94574596  0.07709324  0.98806830     0.08940
H1022       H  0.86144838  0.04734183  0.01700232     0.06470
H1023       H  0.88994105  0.13264852  0.04115560     0.06320
C1024       C  0.94901835  0.21633649  0.16612192     0.03360
C1025       C  0.94246499  0.18633914  0.16814794    -0.12790
C1026       C  0.91341285  0.17842567  0.17040714     0.00860
C1027       C  0.89400653  0.19817786  0.18412195    -0.11320
C1028       C  0.90185554  0.22763169  0.19074761     0.03350
C1029       C  0.92919079  0.23716047  0.17871644    -0.10740
H1030       H  0.95676664  0.17040841  0.15762025     0.08940
H1031       H  0.87234718  0.19036728  0.18748668     0.06470
H1032       H  0.93447998  0.26033888  0.17776191     0.06320
C1033       C  0.61707681  0.41632652  0.04728282     0.03360
C1034       C  0.59284923  0.40567195  0.03052761    -0.12790
C1035       C  0.59197483  0.37547293  0.02208171     0.00860
C1036       C  0.61814435  0.35895084  0.02604327    -0.11320
C1037       C  0.64150357  0.36967819  0.04313812     0.03350
C1038       C  0.63834165  0.39641814  0.05740389    -0.10740
H1039       H  0.57573712  0.42082092  0.02350073     0.08940
H1040       H  0.62120681  0.33841431  0.01439189     0.06470
H1041       H  0.65710260  0.40493579  0.06954081     0.06320
C1042       C  0.73815694  0.42217391  0.16044945     0.03360
C1043       C  0.72298707  0.39594308  0.15397330    -0.12790
C1044       C  0.73046648  0.37008099  0.16894313     0.00860
C1045       C  0.74158204  0.37304767  0.19727136    -0.11320
C1046       C  0.76236685  0.39516358  0.20185798     0.03350
C1047       C  0.76000657  0.42104727  0.18362272    -0.10740
H1048       H  0.71014548  0.39416571  0.13385489     0.08940
H1049       H  0.74408525  0.35291903  0.20994691     0.06470
H1050       H  0.77569447  0.43871049  0.18597998     0.06320
C1051       C  0.78715363  0.31271064  0.30105627     0.02510
C1052       C  0.78754907  0.29248637  0.32542185     0.02510
C1053       C  0.81001080  0.27062815  0.32769829     0.02510
C1054       C  0.83258728  0.26924151  0.30572894     0.02510
C1055       C  0.83141431  0.28871240  0.28034051     0.02510
C1056       C  0.81020803  0.31253186  0.27939949     0.02510
O1057       O  0.72962477  0.97738023  0.28539625    -0.88120
C1058       C  0.66913124  0.00128854  0.21954167     0.87910
Mg1059     Mg  0.74525999  0.00044750  0.32302952     1.58150
O1060       O  0.74270212  0.99451269  0.20246720    -0.87850
O1061       O  0.74512003  0.94678682  0.25140061    -0.75180
C1062       C  0.77366852  0.11580466  0.25680523     0.92960
O1063       O  0.67212373  0.02178215  0.28783773    -0.74990
O1064       O  0.76681501  0.11218469  0.28345455    -0.82500
Mg1065     Mg  0.68321617  0.97482100  0.27746664     1.57960
C1066       C  0.78691197  0.05589840  0.16422341     0.92880
O1067       O  0.69407366  0.92823464  0.26870479    -0.80760
H1068       H  0.78007270  0.97103854  0.20132648    -0.06100
C1069       C  0.70743536  0.07334948  0.22299439     0.87820
O1070       O  0.78511268  0.01342486  0.29617154    -0.75270
O1071       O  0.68890238  0.98776805  0.23297627    -0.88030
O1072       O  0.76590540  0.03841885  0.15867187    -0.80840
C1073       C  0.70939347  0.97179051  0.14928357     0.93000
C1074       C  0.68322209  0.91275060  0.24862065     0.92850
Mg1075     Mg  0.77190827  0.06136626  0.22483121     1.57950
O1076       O  0.75699673  0.10613648  0.23720773    -0.80770
O1077       O  0.78524973  0.01375908  0.21304031    -0.75010
O1078       O  0.69054755  0.97017490  0.16955177    -0.80850
O1079       O  0.67741244  0.96283337  0.32503838    -0.82560
O1080       O  0.75910362  0.05750076  0.32847655    -0.80880
C1081       C  0.76963151  0.99206105  0.20529546     0.87290
O1082       O  0.76427735  0.04530310  0.26657959    -0.88020
O1083       O  0.72680914  0.05601551  0.21449079    -0.88130
O1084       O  0.70687042  0.08294176  0.24952106    -0.75180
Mg1085     Mg  0.71596821  0.95769163  0.21067307     1.57970
O1086       O  0.71482369  0.99685022  0.13829383    -0.82560
H1087       H  0.76250288  0.94872813  0.29276979    -0.06280
O1088       O  0.71503758  0.03616328  0.30317794    -0.87830
H1089       H  0.67909363  0.06119168  0.30710485    -0.06110
H1090       H  0.80768280  0.03798789  0.26663505    -0.06280
C1091       C  0.68837534  0.04031002  0.30045067     0.87270
C1092       C  0.74644751  0.95746082  0.27731674     0.87850
C1093       C  0.78660827  0.03291067  0.27622565     0.87900
H1094       H  0.69082961  0.08081163  0.20747357    -0.06260
O1095       O  0.67486386  0.01770123  0.19732949    -0.75290
Mg1096     Mg  0.73649280  0.07345891  0.29113875     1.58000
H1097       H  0.64661644  0.99881141  0.22652593    -0.06280
C1098       C  0.68284969  0.98283373  0.34365602     0.92890
O1099       O  0.76871794  0.02594975  0.36189567    -0.82520
C1100       C  0.77408988  0.05065431  0.35041483     0.92950
O1101       O  0.68518435  0.91981818  0.22153836    -0.82500
Mg1102     Mg  0.72041007  0.02879217  0.17712757     1.58180
O1103       O  0.70876487  0.98557468  0.35337104    -0.80840
O1104       O  0.78320405  0.07773600  0.18081045    -0.82530
C1105       C  0.57127282  0.83427690  0.27889696     0.03360
C1106       C  0.58243271  0.81959695  0.25315495    -0.12790
C1107       C  0.60822845  0.80153545  0.25601477     0.00860
C1108       C  0.62240932  0.80095841  0.28346935    -0.11320
C1109       C  0.61728723  0.82416912  0.30268959     0.03350
C1110       C  0.58761359  0.83146293  0.30535150    -0.10740
H1111       H  0.57213578  0.82291099  0.23178737     0.08940
H1112       H  0.64284773  0.78888811  0.28524691     0.06470
H1113       H  0.58144900  0.84477303  0.32414659     0.06320
C1114       C  0.79820832  0.85886860  0.10344314     0.03360
C1115       C  0.78321338  0.83205270  0.11096907    -0.12790
C1116       C  0.77795120  0.82527113  0.14162706     0.00860
C1117       C  0.78342464  0.84772230  0.16230876    -0.11320
C1118       C  0.79209843  0.87546690  0.15276396     0.03350
C1119       C  0.80824795  0.87613730  0.12688030    -0.10740
H1120       H  0.77541469  0.81750528  0.09382265     0.08940
H1121       H  0.77490842  0.84574030  0.18451470     0.06470
H1122       H  0.82084992  0.89566262  0.12183653     0.06320
C1123       C  0.80640573  0.17739150  0.41575470     0.03360
C1124       C  0.82939072  0.16034239  0.40437095    -0.12790
C1125       C  0.82719140  0.12990353  0.40453259     0.00860
C1126       C  0.80568330  0.11673973  0.42198866    -0.11320
C1127       C  0.78675681  0.13246997  0.44031500     0.03350
C1128       C  0.78544196  0.16366148  0.43504256    -0.10740
H1129       H  0.84476966  0.17027737  0.38908781     0.08940
H1130       H  0.80084555  0.09391841  0.41802547     0.06470
H1131       H  0.76812861  0.17681839  0.44462539     0.06320
C1132       C  0.92903019  0.99621121  0.13519550     0.03360
C1133       C  0.92331303  0.99187637  0.10434955    -0.12790
C1134       C  0.89927595  0.97365440  0.09549556     0.00860
C1135       C  0.88038228  0.96276955  0.11728267    -0.11320
C1136       C  0.88118027  0.97588329  0.14493699     0.03350
C1137       C  0.90907778  0.98296569  0.15484561    -0.10740
H1138       H  0.93691728  0.00205691  0.08773218     0.08940
H1139       H  0.86018275  0.95208556  0.11049480     0.06470
H1140       H  0.91342282  0.98074966  0.17810767     0.06320
C1141       C  0.94039884  0.14379250  0.24415311     0.03360
C1142       C  0.93630783  0.16792049  0.26393401    -0.12790
C1143       C  0.90815050  0.18166801  0.26555647     0.00860
C1144       C  0.88642916  0.17260906  0.24587560    -0.11320
C1145       C  0.88866545  0.14569395  0.23190718     0.03350
C1146       C  0.91582263  0.13198346  0.22979077    -0.10740
H1147       H  0.95390464  0.17463059  0.27854084     0.08940
H1148       H  0.86513128  0.18346691  0.24614527     0.06470
H1149       H  0.91740840  0.11090278  0.21875994     0.06320
C1150       C  0.57108564  0.00434597  0.40318869     0.03360
C1151       C  0.57135785  0.03118355  0.38743956    -0.12790
C1152       C  0.59496428  0.05037410  0.39176878     0.00860
C1153       C  0.60352885  0.05302971  0.42133257    -0.11320
C1154       C  0.60477771  0.02740737  0.43878164     0.03350
C1155       C  0.58910145  0.00204935  0.42898695    -0.10740
H1156       H  0.55936800  0.03249721  0.36682655     0.08940
H1157       H  0.61614214  0.07197738  0.42810216     0.06470
H1158       H  0.59164509  0.98115945  0.44038451     0.06320
C1159       C  0.74294442  0.05877252  0.54968701     0.02510
C1160       C  0.74025403  0.03740324  0.57260477     0.02510
C1161       C  0.71674812  0.01669826  0.57224525     0.02510
C1162       C  0.69597516  0.01776763  0.54839010     0.02510
C1163       C  0.69857989  0.03966011  0.52536857     0.02510
C1164       C  0.72274508  0.05958567  0.52548597     0.02510
O1165       O  0.77152363  0.43935706  0.77837332    -0.88120
C1166       C  0.69948734  0.47079073  0.73242743     0.87910
Mg1167     Mg  0.78370574  0.45914700  0.81895365     1.58150
O1168       O  0.76813418  0.49157487  0.70464016    -0.87850
O1169       O  0.78890487  0.43048125  0.73404234    -0.75180
C1170       C  0.78385896  0.59593428  0.78625018     0.92960
O1171       O  0.70992072  0.46796870  0.80279945    -0.74990
O1172       O  0.78799184  0.58229419  0.81039196    -0.82500
Mg1173     Mg  0.72543642  0.42944158  0.77441228     1.57960
C1174       C  0.78305040  0.57321621  0.67594171     0.92880
O1175       O  0.73950057  0.39151775  0.74490508    -0.80760
H1176       H  0.80673655  0.48097705  0.68628873    -0.06100
C1177       C  0.72221752  0.54751592  0.75302313     0.87820
O1178       O  0.81850482  0.48605487  0.79237326    -0.75270
O1179       O  0.72345948  0.45843571  0.73730361    -0.88030
O1180       O  0.76776345  0.55077110  0.66980016    -0.80840
C1181       C  0.72465659  0.47664862  0.64924705     0.93000
C1182       C  0.72709083  0.38760076  0.72002655     0.92850
Mg1183     Mg  0.78588548  0.55391751  0.73911666     1.57950
O1184       O  0.76456668  0.58647731  0.76927918    -0.80770
O1185       O  0.80658659  0.51954625  0.70872673    -0.75010
O1186       O  0.71617066  0.46549650  0.67310949    -0.80850
O1187       O  0.72525856  0.40057269  0.81639217    -0.82560
O1188       O  0.80649592  0.51885505  0.83661920    -0.80880
C1189       C  0.79423958  0.49649311  0.69920300     0.87290
O1190       O  0.79218949  0.52265568  0.77374752    -0.88020
O1191       O  0.74191848  0.53962633  0.73582180    -0.88130
O1192       O  0.72656399  0.54872758  0.78097372    -0.75180
Mg1193     Mg  0.75266513  0.44783348  0.70213666     1.57970
O1194       O  0.72576062  0.50425843  0.64725031    -0.82560
H1195       H  0.81025481  0.41930213  0.77210978    -0.06280
O1196       O  0.75057430  0.49232639  0.80982836    -0.87830
H1197       H  0.71215741  0.50579385  0.82633218    -0.06110
H1198       H  0.83528343  0.51816472  0.76584178    -0.06280
C1199       C  0.72390742  0.48947587  0.81366347     0.87270
C1200       C  0.79091033  0.42917674  0.76214680     0.87850
C1201       C  0.81604682  0.50945682  0.77662376     0.87900
H1202       H  0.70107792  0.55406756  0.74411927    -0.06260
O1203       O  0.69749386  0.49433113  0.71690027    -0.75290
Mg1204     Mg  0.76740885  0.53566367  0.81046073     1.58000
H1205       H  0.67973453  0.46123619  0.74140163    -0.06280
C1206       C  0.72933467  0.41380752  0.84080395     0.92890
O1207       O  0.79358644  0.48182990  0.86380931    -0.82520
C1208       C  0.79815019  0.50919439  0.86114030     0.92950
O1209       O  0.73462770  0.40258503  0.69775449    -0.82500
Mg1210     Mg  0.73300453  0.52307391  0.69351243     1.58180
O1211       O  0.74918656  0.43326770  0.84360009    -0.80840
O1212       O  0.78077404  0.58535253  0.70087371    -0.82530
C1213       C  0.60532226  0.31119585  0.73806134     0.03360
C1214       C  0.58922692  0.32764727  0.75951999    -0.12790
C1215       C  0.57715182  0.35584304  0.75139428     0.00860
C1216       C  0.58553649  0.36737586  0.72365845    -0.11320
C1217       C  0.60748885  0.35349437  0.70779076     0.03350
C1218       C  0.60793873  0.32313175  0.70971041    -0.10740
H1219       H  0.58746339  0.31948667  0.78193280     0.08940
H1220       H  0.57907986  0.38898264  0.71618423     0.06470
H1221       H  0.62138786  0.31150691  0.69380395     0.06320
C1222       C  0.93041231  0.52074415  0.61397585     0.03360
C1223       C  0.92113772  0.49716149  0.59568059    -0.12790
C1224       C  0.89255870  0.49761305  0.58284953     0.00860
C1225       C  0.87346313  0.52099176  0.59019098    -0.11320
C1226       C  0.88195350  0.54317427  0.60984929     0.03350
C1227       C  0.91127865  0.54435369  0.61889700    -0.10740
H1228       H  0.93557051  0.47849300  0.59216778     0.08940
H1229       H  0.85120737  0.52104037  0.58173547     0.06470
H1230       H  0.91843145  0.56221165  0.63293012     0.06320
C1231       C  0.62064246  0.47968654  0.94545334     0.03360
C1232       C  0.59297876  0.48129073  0.93072368    -0.12790
C1233       C  0.58443676  0.45846273  0.91098301     0.00860
C1234       C  0.60411130  0.43534445  0.90520704    -0.11320
C1235       C  0.63192829  0.43480092  0.91809331     0.03350
C1236       C  0.63840330  0.45478182  0.94056476    -0.10740
H1237       H  0.57922268  0.50065081  0.93308366     0.08940
H1238       H  0.59945013  0.42034490  0.88722979     0.06470
H1239       H  0.66041474  0.45418617  0.94982033     0.06320
C1240       C  0.78264679  0.32932113  0.63986457     0.03360
C1241       C  0.79058293  0.32654191  0.60940832    -0.12790
C1242       C  0.80541174  0.35027215  0.59482766     0.00860
C1243       C  0.81200933  0.37544696  0.61105164    -0.11320
C1244       C  0.79577003  0.38103726  0.63611258     0.03350
C1245       C  0.78523135  0.35733639  0.65259974    -0.10740
H1246       H  0.78468472  0.30699495  0.59721905     0.08940
H1247       H  0.82119795  0.39427830  0.59947556     0.06470
H1248       H  0.77390951  0.36195537  0.67305616     0.06320
C1249       C  0.72215290  0.63613747  0.92546711     0.03360
C1250       C  0.73633422  0.66228438  0.91538960    -0.12790
C1251       C  0.74632825  0.66401523  0.88560471     0.00860
C1252       C  0.74644729  0.63809207  0.86885997    -0.11320
C1253       C  0.73556114  0.61188163  0.88091752     0.03350
C1254       C  0.71764125  0.61339688  0.90552423    -0.10740
H1255       H  0.74021681  0.68030479  0.93043307     0.08940
H1256       H  0.75841074  0.63744378  0.84824089     0.06470
H1257       H  0.70810039  0.59314457  0.91388518     0.06320
C1258       C  0.92746089  0.63901092  0.73385288     0.03360
C1259       C  0.92251891  0.66455786  0.75171624    -0.12790
C1260       C  0.89552849  0.68048727  0.74803579     0.00860
C1261       C  0.87798680  0.67258036  0.72379559    -0.11320
C1262       C  0.87701199  0.64261914  0.71806236     0.03350
C1263       C  0.90391960  0.62830206  0.71690719    -0.10740
H1264       H  0.93762672  0.66988930  0.76940011     0.08940
H1265       H  0.85806255  0.68514204  0.71949386     0.06470
H1266       H  0.90477531  0.60625951  0.70814702     0.06320
C1267       C  0.70695359  0.23645149  0.73402846     0.02510
C1268       C  0.70516361  0.21259674  0.75464463     0.02510
C1269       C  0.72649652  0.18964425  0.75387061     0.02510
C1270       C  0.74908951  0.19021887  0.73223923     0.02510
C1271       C  0.75112739  0.21405986  0.71186863     0.02510
C1272       C  0.73048847  0.23785363  0.71331299     0.02510
C1273       C  0.94491890  0.97096393  0.79869616     0.02510
C1274       C  0.94420553  0.94728428  0.77768609     0.02510
C1275       C  0.96672668  0.92525697  0.77807716     0.02510
C1276       C  0.98994505  0.92718877  0.79939752     0.02510
C1277       C  0.99084223  0.95064509  0.82041115     0.02510
C1278       C  0.96743723  0.97200519  0.82125414     0.02510
O1279       O  0.05012092  0.25463672  0.74903200    -0.88120
C1280       C  0.01888504  0.31355630  0.80083829     0.87910
Mg1281     Mg  0.03429594  0.26526291  0.70707829     1.58150
O1282       O  0.01956525  0.23901815  0.81953135    -0.87850
O1283       O  0.07416352  0.23190443  0.78407729    -0.75180
C1284       C  0.91300978  0.21254788  0.72991946     0.92960
O1285       O  0.02360435  0.32193298  0.73277509    -0.74990
O1286       O  0.92331684  0.22740081  0.70859666    -0.82500
Mg1287     Mg  0.06375571  0.29768782  0.75495170     1.57960
C1288       C  0.95794813  0.19350280  0.84368928     0.92880
O1289       O  0.10130468  0.27630855  0.77891938    -0.80760
H1290       H  0.04247814  0.20168913  0.82548136    -0.06100
C1291       C  0.94164680  0.27083812  0.78659249     0.87820
O1292       O  0.01985948  0.21614143  0.70869024    -0.75270
O1293       O  0.03694343  0.29470268  0.79276315    -0.88030
O1294       O  0.96665713  0.21779518  0.85414944    -0.80840
C1295       C  0.03164233  0.27288652  0.87621318     0.93000
C1296       C  0.11117400  0.29393004  0.79735523     0.92850
Mg1297     Mg  0.96270129  0.20922970  0.77814751     1.57950
O1298       O  0.91844916  0.21974132  0.75644042    -0.80770
O1299       O  0.00673421  0.19757011  0.79913504    -0.75010
O1300       O  0.03557424  0.29178994  0.85629517    -0.80850
O1301       O  0.09168829  0.29692405  0.71241938    -0.82560
O1302       O  0.98346085  0.24343249  0.67741965    -0.80880
C1303       C  0.02345520  0.21234745  0.81575904     0.87290
O1304       O  0.98399680  0.22386948  0.73966591    -0.88020
O1305       O  0.96147637  0.25378650  0.79446894    -0.88130
O1306       O  0.93670755  0.27596027  0.75939615    -0.75180
Mg1307     Mg  0.05783500  0.26452623  0.82163947     1.57970
O1308       O  0.00573367  0.26454013  0.88120190    -0.82560
H1309       H  0.07351151  0.21777277  0.74124609    -0.06280
O1310       O  0.99714453  0.28306725  0.72817559    -0.87830
H1311       H  0.98099558  0.32315683  0.71815917    -0.06110
H1312       H  0.99416917  0.18331910  0.72525105    -0.06280
C1313       C  0.99916801  0.31002229  0.72641180     0.87270
C1314       C  0.06599321  0.23380752  0.75708611     0.87850
C1315       C  0.99909145  0.20658737  0.72488960     0.87900
H1316       H  0.92823086  0.28143849  0.80307164    -0.06260
O1317       O  0.99710748  0.30670494  0.81720435    -0.75290
Mg1318     Mg  0.96014497  0.25836581  0.71798029     1.58000
H1319       H  0.02183728  0.33627120  0.79425404    -0.06280
C1320       C  0.08978307  0.28280682  0.68809299     0.92890
O1321       O  0.01309920  0.27710180  0.66176323    -0.82520
C1322       C  0.98852804  0.26440590  0.65999645     0.92950
O1323       O  0.09913306  0.29490661  0.82239493    -0.82500
Mg1324     Mg  0.98134362  0.26118055  0.83629760     1.58180
O1325       O  0.07807178  0.25734707  0.68713628    -0.80840
O1326       O  0.94251767  0.19247102  0.82020757    -0.82530
C1327       C  0.83507802  0.26265909  0.63103354     0.03360
C1328       C  0.83932816  0.25750748  0.60016486    -0.12790
C1329       C  0.85740267  0.27685431  0.58332296     0.00860
C1330       C  0.87014103  0.30099717  0.59748651    -0.11320
C1331       C  0.87337710  0.29978962  0.62788584     0.03350
C1332       C  0.85127882  0.28583743  0.64389136    -0.10740
H1333       H  0.83050238  0.23794423  0.58994790     0.08940
H1334       H  0.88609472  0.31400258  0.58541757     0.06470
H1335       H  0.85045733  0.29014107  0.66722039     0.06320
C1336       C  0.03470884  0.09528681  0.93254445     0.03360
C1337       C  0.01424383  0.07264746  0.92497821    -0.12790
C1338       C  0.01256408  0.06277576  0.89515051     0.00860
C1339       C  0.03008824  0.07738516  0.87416711    -0.11320
C1340       C  0.04122543  0.10507220  0.88086517     0.03350
C1341       C  0.05157522  0.10783600  0.90981603    -0.10740
H1342       H  0.99924953  0.06414086  0.94135876     0.08940
H1343       H  0.02901104  0.07077850  0.85130110     0.06470
H1344       H  0.06490826  0.12691859  0.91486916     0.06320
C1345       C  0.82634869  0.09124339  0.73450984     0.03360
C1346       C  0.84283794  0.07370740  0.75517028    -0.12790
C1347       C  0.87158329  0.06359523  0.74736091     0.00860
C1348       C  0.88302241  0.07481037  0.72066886    -0.11320
C1349       C  0.86891697  0.09752279  0.70561574     0.03350
C1350       C  0.83878340  0.09793763  0.70717711    -0.10740
H1351       H  0.83401102  0.06925302  0.77685401     0.08940
H1352       H  0.90501269  0.07049889  0.71353208     0.06470
H1353       H  0.82716147  0.11289679  0.69239835     0.06320
C1354       C  0.15513547  0.22321272  0.93093548     0.03360
C1355       C  0.14380405  0.20231959  0.91139070    -0.12790
C1356       C  0.14086565  0.21111365  0.88217863     0.00860
C1357       C  0.16507351  0.22598785  0.87047632    -0.11320
C1358       C  0.18187251  0.24508708  0.88852870     0.03350
C1359       C  0.17498611  0.24489439  0.91947441    -0.10740
H1360       H  0.12763279  0.18695570  0.91979119     0.08940
H1361       H  0.16746035  0.22566475  0.84684668     0.06470
H1362       H  0.18363299  0.26176384  0.93384340     0.06320
C1363       C  0.15397307  0.42199481  0.73099977     0.03360
C1364       C  0.13985262  0.40151427  0.71268022    -0.12790
C1365       C  0.15073745  0.37307404  0.71239224     0.00860
C1366       C  0.18102950  0.37224728  0.71400943    -0.11320
C1367       C  0.19401297  0.38575511  0.73875838     0.03350
C1368       C  0.18012366  0.41309717  0.74670689    -0.10740
H1369       H  0.11759564  0.40561889  0.70493923     0.08940
H1370       H  0.19121795  0.35486957  0.70204280     0.06470
H1371       H  0.18844401  0.42684984  0.76415172     0.06320
C1372       C  0.03677480  0.41860922  0.61406751     0.03360
C1373       C  0.06266922  0.40180789  0.61616054    -0.12790
C1374       C  0.06397419  0.37347268  0.60433859     0.00860
C1375       C  0.04234583  0.36473428  0.58449433    -0.11320
C1376       C  0.01586756  0.38041790  0.58136040     0.03350
C1377       C  0.01293334  0.40775439  0.59656520    -0.10740
H1378       H  0.07930273  0.40809176  0.63216350     0.08940
H1379       H  0.04351574  0.34239450  0.57635426     0.06470
H1380       H  0.99214910  0.41943445  0.59615483     0.06320
C1381       C  0.30780709  0.30909761  0.77722481     0.02510
C1382       C  0.32794099  0.28458587  0.78008040     0.02510
C1383       C  0.32400901  0.26337563  0.80340259     0.02510
C1384       C  0.29947949  0.26593072  0.82299222     0.02510
C1385       C  0.27955953  0.29053771  0.82087683     0.02510
C1386       C  0.28339466  0.31145073  0.79735939     0.02510
O1387       O  0.24109744  0.01503972  0.78316532    -0.88120
C1388       C  0.32701470  0.02499922  0.78355410     0.87910
Mg1389     Mg  0.21206982  0.98624664  0.79989558     1.58150
O1390       O  0.29194438  0.00020846  0.71857286    -0.87850
O1391       O  0.23826871  0.03954216  0.74204904    -0.75180
C1392       C  0.28145372  0.86647272  0.75052119     0.92960
O1393       O  0.28284497  0.98520125  0.83072328    -0.74990
O1394       O  0.25789725  0.86582711  0.76506007    -0.82500
Mg1395     Mg  0.27438959  0.03120319  0.81228639     1.57960
C1396       C  0.32774354  0.92962757  0.67867139     0.92880
O1397       O  0.26631505  0.07513363  0.79619370    -0.80760
H1398       H  0.26834630  0.00631814  0.68152641    -0.06100
C1399       C  0.31817756  0.93908010  0.77922442     0.87820
O1400       O  0.20811609  0.96356758  0.75466890    -0.75270
O1401       O  0.30113042  0.02639564  0.77588012    -0.88030
O1402       O  0.33232724  0.95466847  0.68979186    -0.80840
C1403       C  0.35454363  0.04234776  0.70775090     0.93000
C1404       C  0.26800218  0.09552097  0.77725783     0.92850
Mg1405     Mg  0.28261387  0.92407338  0.72589847     1.57950
O1406       O  0.29816886  0.88740397  0.75517849    -0.80770
O1407       O  0.26996694  0.96379826  0.69594166    -0.75010
O1408       O  0.33177198  0.05374837  0.71909674    -0.80850
O1409       O  0.24710623  0.03988771  0.85392231    -0.82560
O1410       O  0.22092024  0.93978164  0.81654214    -0.80880
C1411       C  0.27654313  0.99096773  0.69798726     0.87290
O1412       O  0.24743368  0.93556796  0.75381195    -0.88020
O1413       O  0.31015550  0.94866611  0.75465151    -0.88130
O1414       O  0.30102082  0.92395426  0.79577300    -0.75180
Mg1415     Mg  0.28624636  0.04443215  0.73335535     1.57970
O1416       O  0.35868774  0.01482111  0.70553235    -0.82560
H1417       H  0.20312667  0.03153228  0.76778669    -0.06280
O1418       O  0.24800429  0.95421159  0.81540335    -0.87830
H1419       H  0.27923124  0.94321158  0.84522269    -0.06110
H1420       H  0.21791060  0.93596920  0.72088483    -0.06280
C1421       C  0.27001353  0.96036894  0.83127387     0.87270
C1422       C  0.22661080  0.02939517  0.76501515     0.87850
C1423       C  0.22429626  0.94439141  0.74224770     0.87900
H1424       H  0.34039476  0.94313889  0.78662479    -0.06260
O1425       O  0.34413043  0.00705417  0.77135412    -0.75290
Mg1426     Mg  0.25077867  0.90927026  0.79257854     1.58000
H1427       H  0.33473607  0.03819861  0.80178051    -0.06280
C1428       C  0.22498072  0.02427008  0.85969419     0.92890
O1429       O  0.17718834  0.95855630  0.81982616    -0.82520
C1430       C  0.19337638  0.93617949  0.81921634     0.92950
O1431       O  0.27889837  0.09160324  0.75164851    -0.82500
Mg1432     Mg  0.33432191  0.98038379  0.73057270     1.58180
O1433       O  0.21453712  0.00680236  0.84121798    -0.80840
O1434       O  0.31631538  0.90930556  0.69343716    -0.82530
C1435       C  0.28474077  0.85608576  0.59005896     0.03360
C1436       C  0.30719040  0.86102478  0.61082827    -0.12790
C1437       C  0.31263219  0.84021217  0.63297159     0.00860
C1438       C  0.30276506  0.81199849  0.62724823    -0.11320
C1439       C  0.27355183  0.81009381  0.61739930     0.03350
C1440       C  0.26521392  0.83170492  0.59544634    -0.10740
H1441       H  0.31856819  0.88185996  0.61119324     0.08940
H1442       H  0.31153443  0.79470759  0.64117309     0.06470
H1443       H  0.24444737  0.83036869  0.58383347     0.06320
C1444       C  0.38939680  0.02064502  0.58768462     0.03360
C1445       C  0.36738572  0.02529229  0.60842435    -0.12790
C1446       C  0.37163456  0.01093894  0.63486260     0.00860
C1447       C  0.39906577  0.01524500  0.64802730    -0.11320
C1448       C  0.42380948  0.02072289  0.63027138     0.03350
C1449       C  0.41909692  0.02008166  0.59878130    -0.10740
H1450       H  0.34500510  0.02813191  0.60109201     0.08940
H1451       H  0.40158262  0.01030732  0.67123470     0.06470
H1452       H  0.43746035  0.01828253  0.58383914     0.06320
C1453       C  0.07876101  0.83945140  0.78001027     0.03360
C1454       C  0.09732019  0.84332893  0.80430621    -0.12790
C1455       C  0.12628678  0.83440552  0.80273744     0.00860
C1456       C  0.13445002  0.81417218  0.78144842    -0.11320
C1457       C  0.11659619  0.80876001  0.75679831     0.03350
C1458       C  0.08826747  0.82206418  0.75572921    -0.10740
H1459       H  0.09129097  0.85907852  0.82123175     0.08940
H1460       H  0.15706983  0.80655041  0.78190804     0.06470
H1461       H  0.07480542  0.82042240  0.73603723     0.06320
C1462       C  0.22620399  0.13487804  0.91793055     0.03360
C1463       C  0.23692479  0.16407894  0.91336569    -0.12790
C1464       C  0.22922979  0.17919146  0.88658794     0.00860
C1465       C  0.20547887  0.16653691  0.87151582    -0.11320
C1466       C  0.20763072  0.13639885  0.86762043     0.03350
C1467       C  0.21445684  0.12014741  0.89320072    -0.10740
H1468       H  0.25150265  0.17375280  0.92949235     0.08940
H1469       H  0.19287240  0.17845173  0.85534489     0.06470
H1470       H  0.21219385  0.09641030  0.89323820     0.06320
C1471       C  0.10957792  0.99329156  0.94918987     0.03360
C1472       C  0.08477310  0.99187249  0.92985942    -0.12790
C1473       C  0.08620907  0.97354810  0.90427297     0.00860
C1474       C  0.11396893  0.96295142  0.89568994    -0.11320
C1475       C  0.13852373  0.96833466  0.91364193     0.03350
C1476       C  0.13330529  0.97455712  0.94315896    -0.10740
H1477       H  0.06556996  0.00540695  0.93381301     0.08940
H1478       H  0.11710634  0.95511517  0.87335671     0.06470
H1479       H  0.15222509  0.97571986  0.95765479     0.06320
C1480       C  0.40472806  0.17679193  0.76196064     0.03360
C1481       C  0.39143021  0.16532854  0.73627016    -0.12790
C1482       C  0.40769073  0.14970104  0.71550681     0.00860
C1483       C  0.43796283  0.15162476  0.71650064    -0.11320
C1484       C  0.45139678  0.15598673  0.74393684     0.03350
C1485       C  0.43495960  0.16967943  0.76682135    -0.10740
H1486       H  0.36791512  0.16611242  0.73300546     0.08940
H1487       H  0.44993941  0.13947855  0.69981223     0.06470
H1488       H  0.44501129  0.17322089  0.78820640     0.06320
C1489       C  0.55611089  0.06264471  0.74550524     0.02510
C1490       C  0.57690514  0.03918607  0.74513651     0.02510
C1491       C  0.57345050  0.01514984  0.72475990     0.02510
C1492       C  0.54987036  0.01561651  0.70320340     0.02510
C1493       C  0.52896679  0.03954309  0.70366094     0.02510
C1494       C  0.53250993  0.06296479  0.72452651     0.02510
O1495       O  0.51554276  0.77409298  0.68939611    -0.88120
C1496       C  0.53984907  0.69519396  0.72506813     0.87910
Mg1497     Mg  0.53956471  0.81060028  0.70552080     1.58150
O1498       O  0.47001529  0.72113669  0.74533489    -0.87850
O1499       O  0.47200005  0.75382849  0.68833538    -0.75180
C1500       C  0.53303367  0.79370392  0.84278552     0.92960
O1501       O  0.58056894  0.74926437  0.70930441    -0.74990
O1502       O  0.53431017  0.81413471  0.82398122    -0.82500
Mg1503     Mg  0.54441734  0.73859945  0.67446606     1.57960
C1504       C  0.44880135  0.71234751  0.83154997     0.92880
O1505       O  0.50869474  0.72964006  0.63911583    -0.80760
H1506       H  0.42864775  0.73151894  0.73396728    -0.06100
C1507       C  0.53403977  0.72908080  0.80209473     0.87820
O1508       O  0.49788113  0.82254780  0.73368285    -0.75270
O1509       O  0.52498132  0.71269702  0.70987316    -0.88030
O1510       O  0.44724788  0.70417004  0.80493439    -0.80840
C1511       C  0.46701827  0.65010883  0.73315124     0.93000
C1512       C  0.48771587  0.71161560  0.64151974     0.92850
Mg1513     Mg  0.47820897  0.76709861  0.80480273     1.57950
O1514       O  0.51126712  0.77644626  0.84248431    -0.80770
O1515       O  0.44451668  0.75438215  0.76903266    -0.75010
O1516       O  0.48819368  0.66017345  0.71880192    -0.80850
O1517       O  0.56405697  0.76883643  0.63877152    -0.82560
O1518       O  0.54081165  0.84119075  0.76184826    -0.80880
C1519       C  0.44694944  0.73529496  0.74871016     0.87290
O1520       O  0.50057738  0.79185414  0.77128003    -0.88020
O1521       O  0.50815226  0.73166538  0.79414881    -0.88130
O1522       O  0.55219631  0.74969900  0.79832442    -0.75180
Mg1523     Mg  0.47989629  0.70577106  0.70284710     1.57970
O1524       O  0.46552872  0.65438707  0.76064721    -0.82560
H1525       H  0.47889565  0.79703336  0.68045548    -0.06280
O1526       O  0.55561799  0.77953372  0.73714966    -0.87830
H1527       H  0.59694965  0.76736993  0.74701647    -0.06110
H1528       H  0.46703375  0.82023630  0.76604211    -0.06280
C1529       C  0.57846091  0.76552380  0.73209550     0.87270
C1530       C  0.48864143  0.77595652  0.68563962     0.87850
C1531       C  0.48742237  0.81161785  0.75745604     0.87900
H1532       H  0.54159999  0.70850550  0.81164259    -0.06260
O1533       O  0.53076858  0.68535319  0.74994659    -0.75290
Mg1534     Mg  0.54595560  0.79634612  0.78004439     1.58000
H1535       H  0.56087675  0.68779610  0.71690482    -0.06280
C1536       C  0.56437153  0.79419168  0.65015110     0.92890
O1537       O  0.57040243  0.84586452  0.72537174    -0.82520
C1538       C  0.56590589  0.84720724  0.75283988     0.92950
O1539       O  0.49102521  0.68980244  0.65838677    -0.82500
Mg1540     Mg  0.48858267  0.69385133  0.77839892     1.58180
O1541       O  0.57611362  0.79681046  0.67535647    -0.80840
O1542       O  0.45539843  0.73865157  0.83792427    -0.82530
C1543       C  0.51975613  0.60410244  0.94054347     0.03360
C1544       C  0.51907038  0.57520211  0.92826978    -0.12790
C1545       C  0.49696053  0.56805286  0.90685985     0.00860
C1546       C  0.47698412  0.58971433  0.89753001    -0.11320
C1547       C  0.47855941  0.61792816  0.90865175     0.03350
C1548       C  0.49798887  0.62406649  0.93161890    -0.10740
H1549       H  0.53578110  0.55917500  0.93426578     0.08940
H1550       H  0.46213202  0.58532803  0.87925469     0.06470
H1551       H  0.49822912  0.64631632  0.94012759     0.06320
C1552       C  0.35773551  0.76409471  0.58103929     0.03360
C1553       C  0.33817827  0.74113228  0.59037572    -0.12790
C1554       C  0.33258191  0.73708359  0.62131991     0.00860
C1555       C  0.35069943  0.75289159  0.64101734    -0.11320
C1556       C  0.37452502  0.76907530  0.63054652     0.03350
C1557       C  0.36962983  0.78213137  0.60296964    -0.10740
H1558       H  0.32838967  0.72656779  0.57430300     0.08940
H1559       H  0.34732620  0.75162824  0.66455635     0.06470
H1560       H  0.38362270  0.80014607  0.59624691     0.06320
C1561       C  0.47911631  0.89506019  0.58495873     0.03360
C1562       C  0.49787551  0.91815205  0.59614283    -0.12790
C1563       C  0.49569236  0.92639492  0.62689587     0.00860
C1564       C  0.47689598  0.90854396  0.64426290    -0.11320
C1565       C  0.47090643  0.88026989  0.63430514     0.03350
C1566       C  0.46106875  0.88058329  0.60529936    -0.10740
H1567       H  0.51427125  0.92794208  0.58204163     0.08940
H1568       H  0.47273510  0.91293874  0.66726594     0.06470
H1569       H  0.44781567  0.86236175  0.59769129     0.06320
C1570       C  0.65582971  0.72975635  0.93482813     0.03360
C1571       C  0.67997133  0.74818151  0.92723688    -0.12790
C1572       C  0.68485078  0.75531771  0.89696687     0.00860
C1573       C  0.66442290  0.74494992  0.87613646    -0.11320
C1574       C  0.63736658  0.73373681  0.88494362     0.03350
C1575       C  0.63678521  0.72018780  0.91254193    -0.10740
H1576       H  0.69387152  0.75728150  0.94433904     0.08940
H1577       H  0.66878660  0.74824166  0.85309909     0.06470
H1578       H  0.61787392  0.70711131  0.91858809     0.06320
C1579       C  0.36617736  0.56357855  0.76087903     0.03360
C1580       C  0.38198571  0.57421245  0.73655675    -0.12790
C1581       C  0.36924547  0.59313562  0.71558897     0.00860
C1582       C  0.33933788  0.59809220  0.71609160    -0.11320
C1583       C  0.32297007  0.58993427  0.74076243     0.03350
C1584       C  0.33621158  0.57234907  0.76346111    -0.10740
H1585       H  0.40520861  0.56942685  0.73479294     0.08940
H1586       H  0.33000888  0.61332733  0.69994056     0.06470
H1587       H  0.32388611  0.56664717  0.78302636     0.06320
C1588       C  0.69669715  0.90438656  0.79944226     0.03360
C1589       C  0.68276161  0.92603863  0.78084807    -0.12790
C1590       C  0.65149004  0.92844740  0.78026678     0.00860
C1591       C  0.63609777  0.90679305  0.79583715    -0.11320
C1592       C  0.64968401  0.88549136  0.81358596     0.03350
C1593       C  0.67961027  0.88676410  0.81811186    -0.10740
H1594       H  0.69604343  0.93937827  0.76636567     0.08940
H1595       H  0.61314460  0.90369791  0.79081133     0.06470
H1596       H  0.68987444  0.86883087  0.83045740     0.06320
C1597       C  0.21652587  0.72154914  0.69199347     0.02510
C1598       C  0.19273089  0.72337396  0.71263887     0.02510
C1599       C  0.19030838  0.70204166  0.73610079     0.02510
C1600       C  0.21184515  0.67917049  0.73910443     0.02510
C1601       C  0.23503477  0.67690315  0.71799256     0.02510
C1602       C  0.23701302  0.69726252  0.69352134     0.02510
O1603       O  0.32336275  0.76563319  0.03422669    -0.88120
C1604       C  0.30828041  0.79994525  0.95121218     0.87910
Mg1605     Mg  0.33137997  0.72229112  0.04790814     1.58150
O1606       O  0.24746330  0.79229297  0.99886175    -0.87850
O1607       O  0.29343990  0.80057745  0.04753593    -0.75180
C1608       C  0.24242554  0.65611303  0.96209811     0.92960
O1609       O  0.34832198  0.74224292  0.97223852    -0.74990
O1610       O  0.25339831  0.65002220  0.98705540    -0.82500
Mg1611     Mg  0.34891905  0.78518593  0.99783666     1.57960
C1612       C  0.17862224  0.75880007  0.95738029     0.92880
O1613       O  0.35159395  0.82602988  0.02783402    -0.80760
H1614       H  0.22648390  0.80073150  0.03676901    -0.06100
C1615       C  0.26593297  0.72746532  0.94300815     0.87820
O1616       O  0.28221136  0.71580061  0.05937071    -0.75270
O1617       O  0.30809638  0.79821522  0.97847356    -0.88030
O1618       O  0.19413254  0.77750238  0.97017732    -0.80840
C1619       C  0.23469030  0.84736213  0.96102962     0.93000
C1620       C  0.33615071  0.84932821  0.02993856     0.92850
Mg1621     Mg  0.22202032  0.71877000  0.99079113     1.57950
O1622       O  0.22672760  0.67914926  0.95914156    -0.80770
O1623       O  0.21817559  0.76010585  0.02041741    -0.75010
O1624       O  0.26211113  0.84915078  0.96624210    -0.80850
O1625       O  0.39330938  0.76971863  0.01409250    -0.82560
O1626       O  0.30111759  0.65955283  0.03782579    -0.80880
C1627       C  0.23068062  0.78522771  0.01931691     0.87290
O1628       O  0.26019691  0.70842072  0.01683248    -0.88020
O1629       O  0.25157576  0.74079090  0.96183465    -0.88130
O1630       O  0.28142302  0.70497395  0.94974844    -0.75180
Mg1631     Mg  0.27997643  0.82438498  0.00547853     1.57970
O1632       O  0.22698987  0.83167528  0.93957404    -0.82560
H1633       H  0.31204736  0.77228528  0.07634722    -0.06280
O1634       O  0.32409775  0.71187669  0.00144268    -0.87830
H1635       H  0.34382921  0.69865309  0.96441376    -0.06110
H1636       H  0.23847670  0.70784980  0.05513586    -0.06280
C1637       C  0.33943509  0.71663172  0.97930442     0.87270
C1638       C  0.31023466  0.77929920  0.05361437     0.87850
C1639       C  0.25928769  0.71042238  0.04407993     0.87900
H1640       H  0.26519818  0.73499683  0.92032477    -0.06260
O1641       O  0.28543687  0.79460212  0.93603422    -0.75290
Mg1642     Mg  0.29015573  0.68118111  0.99430223     1.58000
H1643       H  0.32849035  0.80536677  0.94007972    -0.06280
C1644       C  0.38919811  0.75660964  0.03817714     0.92890
O1645       O  0.33908945  0.67438579  0.06240780    -0.82520
C1646       C  0.32870307  0.65930261  0.04148820     0.92950
O1647       O  0.31729068  0.85616138  0.01031603    -0.82500
Mg1648     Mg  0.23913394  0.78467665  0.95222185     1.58180
O1649       O  0.37923731  0.73049354  0.03746936    -0.80840
O1650       O  0.18281804  0.73163570  0.96212289    -0.82530
C1651       C  0.09710877  0.86590846  0.02517483     0.03360
C1652       C  0.10257810  0.89713686  0.02345506    -0.12790
C1653       C  0.12617484  0.90966962  0.04035096     0.00860
C1654       C  0.14501130  0.89070897  0.05593501    -0.11320
C1655       C  0.14455608  0.86100358  0.04919639     0.03350
C1656       C  0.11673847  0.84956386  0.04335390    -0.10740
H1657       H  0.08963210  0.91121707  0.00904304     0.08940
H1658       H  0.16475434  0.89980078  0.06567558     0.06470
H1659       H  0.11347949  0.82666070  0.04845913     0.06320
C1660       C  0.27831483  0.56025942  0.85688542     0.03360
C1661       C  0.25477974  0.57258615  0.83952478    -0.12790
C1662       C  0.25852515  0.60103013  0.82640231     0.00860
C1663       C  0.28438315  0.61639457  0.83395354    -0.11320
C1664       C  0.29982107  0.60776640  0.85929490     0.03350
C1665       C  0.30361159  0.57740202  0.86116090    -0.10740
H1666       H  0.23412703  0.56108013  0.83740559     0.08940
H1667       H  0.28855867  0.63789697  0.82455335     0.06470
H1668       H  0.32083465  0.56920972  0.87572834     0.06320
C1669       C  0.28040310  0.88715098  0.17980122     0.03360
C1670       C  0.25884787  0.90677091  0.16740125    -0.12790
C1671       C  0.26655018  0.92526062  0.14310912     0.00860
C1672       C  0.29533028  0.92326176  0.13255944    -0.11320
C1673       C  0.31420266  0.90045062  0.14131314     0.03350
C1674       C  0.30830498  0.88536577  0.16711681    -0.10740
H1675       H  0.23654573  0.90662376  0.17553484     0.08940
H1676       H  0.30046560  0.93449387  0.11218726     0.06470
H1677       H  0.32316129  0.86769306  0.17373673     0.06320
C1678       C  0.07209669  0.76555399  0.85573708     0.03360
C1679       C  0.08686009  0.74244628  0.84007141    -0.12790
C1680       C  0.11493578  0.74838450  0.82745001     0.00860
C1681       C  0.12754442  0.77562282  0.83443174    -0.11320
C1682       C  0.11597406  0.79342465  0.85633199     0.03350
C1683       C  0.08589123  0.79287341  0.85834628    -0.10740
H1684       H  0.07716383  0.72082939  0.83832763     0.08940
H1685       H  0.14859993  0.78161847  0.82585633     0.06470
H1686       H  0.07526655  0.81070879  0.86988397     0.06320
C1687       C  0.40766748  0.75901690  0.18462307     0.03360
C1688       C  0.40438749  0.78578530  0.16944796    -0.12790
C1689       C  0.41418076  0.78837590  0.14084147     0.00860
C1690       C  0.43427418  0.76758025  0.13026221    -0.11320
C1691       C  0.44097932  0.74148434  0.14562236     0.03350
C1692       C  0.42643390  0.73659668  0.17295735    -0.10740
H1693       H  0.38836876  0.80188651  0.17687345     0.08940
H1694       H  0.44248686  0.77049316  0.10810277     0.06470
H1695       H  0.42839824  0.71550469  0.18408057     0.06320
C1696       C  0.40542174  0.57177536  0.97932058     0.03360
C1697       C  0.39744621  0.58832685  0.95437163    -0.12790
C1698       C  0.40580004  0.61759012  0.95370343     0.00860
C1699       C  0.43494856  0.62125129  0.96182385    -0.11320
C1700       C  0.44473146  0.60857130  0.98901150     0.03350
C1701       C  0.42857598  0.58267502  0.99802155    -0.10740
H1702       H  0.37889809  0.58137449  0.94110328     0.08940
H1703       H  0.44476798  0.63997758  0.95158525     0.06470
H1704       H  0.43272696  0.57163803  0.01876164     0.06320
C1705       C  0.55832626  0.71874569  0.07863603     0.02510
C1706       C  0.53520817  0.69746496  0.07393100     0.02510
C1707       C  0.53753293  0.67674018  0.05019884     0.02510
C1708       C  0.56308341  0.67645628  0.03177401     0.02510
C1709       C  0.58460062  0.69916428  0.03507323     0.02510
C1710       C  0.58389600  0.71910550  0.05965425     0.02510
C1711       C  0.99567445  0.77657641  0.95488591     0.02510
C1712       C  0.97054116  0.75778584  0.95442906     0.02510
C1713       C  0.94977029  0.75972471  0.97751687     0.02510
C1714       C  0.95284612  0.78140250  0.99993717     0.02510
C1715       C  0.97725093  0.80103059  0.99959157     0.02510
C1716       C  0.99915664  0.79844135  0.97726456     0.02510
O1717       O  0.00022818  0.73338535  0.27662427    -0.88120
C1718       C  0.96072160  0.80323444  0.24254283     0.87910
Mg1719     Mg  0.98748750  0.72521597  0.31990707     1.58150
O1720       O  0.03505322  0.81176829  0.26147125    -0.87850
O1721       O  0.03851906  0.74274714  0.24914963    -0.75180
C1722       C  0.01903289  0.82951411  0.39625402     0.92960
O1723       O  0.93503729  0.76116610  0.28888359    -0.74990
O1724       O  0.00070767  0.81087790  0.40570406    -0.82500
Mg1725     Mg  0.96229399  0.74014038  0.25073960     1.57960
C1726       C  0.06121124  0.88447478  0.30655606     0.92880
O1727       O  0.98918743  0.72353369  0.21275526    -0.80760
H1728       H  0.07806747  0.80439417  0.25586180    -0.06100
C1729       C  0.97584321  0.84452809  0.32221360     0.87820
O1730       O  0.03353485  0.74234948  0.33289018    -0.75270
O1731       O  0.97911024  0.78298315  0.24275104    -0.88030
O1732       O  0.05158567  0.87564899  0.28167716    -0.80840
C1733       C  0.00489061  0.85214149  0.20040717     0.93000
C1734       C  0.98722503  0.74102770  0.19094191     0.92850
Mg1735     Mg  0.03761078  0.83219283  0.33630997     1.57950
O1736       O  0.01100162  0.84572581  0.37509702    -0.80770
O1737       O  0.06692100  0.81772180  0.29714716    -0.75010
O1738       O  0.00699697  0.82436435  0.19958951    -0.80850
O1739       O  0.94561774  0.69351916  0.26225196    -0.82560
O1740       O  0.00430068  0.74339296  0.38541037    -0.80880
C1741       C  0.06067400  0.81088827  0.27064579     0.87290
O1742       O  0.02451995  0.78870887  0.34211605    -0.88020
O1743       O  0.99934141  0.83714647  0.31061298    -0.88130
O1744       O  0.96508239  0.82969069  0.34354417    -0.75180
Mg1745     Mg  0.02317739  0.78483332  0.22451386     1.57970
O1746       O  0.01614637  0.86693635  0.22117954    -0.82560
H1747       H  0.03565333  0.70699281  0.27627461    -0.06280
O1748       O  0.96842304  0.76671006  0.32338182    -0.87830
H1749       H  0.92675682  0.78011074  0.32868770    -0.06110
H1750       H  0.06520406  0.77167789  0.34376252    -0.06280
C1751       C  0.94285774  0.77009466  0.31440953     0.87270
C1752       C  0.02502329  0.72663044  0.26768948     0.87850
C1753       C  0.04211865  0.76798934  0.33980356     0.87900
H1754       H  0.96449454  0.86406115  0.31436970    -0.06260
O1755       O  0.96685596  0.82905235  0.25129426    -0.75290
Mg1756     Mg  0.98324587  0.78643633  0.36461887     1.58000
H1757       H  0.93852313  0.79862447  0.23543735    -0.06280
C1758       C  0.93758577  0.68994416  0.28889046     0.92890
O1759       O  0.96991530  0.71961369  0.36472439    -0.82520
C1760       C  0.99423694  0.71902392  0.37731755     0.92950
O1761       O  0.00917015  0.75690432  0.18475006    -0.82500
Mg1762     Mg  0.00913606  0.85134737  0.26731562     1.58180
O1763       O  0.94431125  0.70826324  0.30832462    -0.80840
O1764       O  0.04875087  0.87811603  0.33034479    -0.82530
C1765       C  0.02005163  0.56950970  0.38037444     0.03360
C1766       C  0.01797309  0.57738370  0.41110060    -0.12790
C1767       C  0.03954877  0.59636796  0.42418773     0.00860
C1768       C  0.06119025  0.60819504  0.40595194    -0.11320
C1769       C  0.05556736  0.60923366  0.37577698     0.03350
C1770       C  0.04253151  0.58393088  0.36430831    -0.10740
H1771       H  0.99987090  0.56971651  0.42437376     0.08940
H1772       H  0.07581845  0.62451526  0.41528757     0.06470
H1773       H  0.04755831  0.57897220  0.34177657     0.06320
C1774       C  0.98872255  0.90377892  0.07351705     0.03360
C1775       C  0.01242040  0.91798334  0.08855596    -0.12790
C1776       C  0.00604531  0.93685632  0.11288707     0.00860
C1777       C  0.97661576  0.93900027  0.12195139    -0.11320
C1778       C  0.95673443  0.91738715  0.11316101     0.03350
C1779       C  0.96024857  0.90733477  0.08458291    -0.10740
H1780       H  0.03489403  0.91366509  0.08219753     0.08940
H1781       H  0.97156381  0.95179629  0.14135855     0.06470
H1782       H  0.94328379  0.89325241  0.07589798     0.06320
C1783       C  0.84788752  0.55705331  0.29773997     0.03360
C1784       C  0.82734226  0.57168965  0.27887984    -0.12790
C1785       C  0.82180098  0.60228060  0.28260968     0.00860
C1786       C  0.83902467  0.61719918  0.30331049    -0.11320
C1787       C  0.86023252  0.60295414  0.32040345     0.03350
C1788       C  0.86149882  0.57254636  0.32062210    -0.10740
H1789       H  0.81711411  0.55964415  0.26110256     0.08940
H1790       H  0.83969615  0.64102107  0.30248161     0.06470
H1791       H  0.87910896  0.56206055  0.33318804     0.06320
C1792       C  0.20021279  0.89870488  0.27079290     0.03360
C1793       C  0.18627632  0.91277179  0.24591417    -0.12790
C1794       C  0.17354378  0.94137669  0.24956778     0.00860
C1795       C  0.17451572  0.95368057  0.27789098    -0.11320
C1796       C  0.17548991  0.93390255  0.30165515     0.03350
C1797       C  0.19706289  0.91237382  0.29851520    -0.10740
H1798       H  0.18547746  0.90219098  0.22460018     0.08940
H1799       H  0.16492811  0.97528934  0.28116833     0.06470
H1800       H  0.20579332  0.90209679  0.31831771     0.06320
C1801       C  0.86977201  0.76622534  0.09485824     0.03360
C1802       C  0.84665396  0.74635216  0.10233516    -0.12790
C1803       C  0.83589495  0.74552626  0.13197805     0.00860
C1804       C  0.84941023  0.76396169  0.15291137    -0.11320
C1805       C  0.87546128  0.77806910  0.14631377     0.03350
C1806       C  0.88162824  0.78399353  0.11694296    -0.10740
H1807       H  0.83858616  0.73091508  0.08612297     0.08940
H1808       H  0.84362797  0.76256297  0.17600866     0.06470
H1809       H  0.90112474  0.79659184  0.11182532     0.06320
C1810       C  0.17577337  0.76601089  0.39380631     0.03360
C1811       C  0.16854923  0.74592756  0.41674613    -0.12790
C1812       C  0.14794819  0.75441605  0.43840218     0.00860
C1813       C  0.13765770  0.78366845  0.43787888    -0.11320
C1814       C  0.13935987  0.80023783  0.41170262     0.03350
C1815       C  0.16036238  0.79266406  0.39102085    -0.10740
H1816       H  0.17734895  0.72372399  0.41659484     0.08940
H1817       H  0.12090987  0.78991674  0.45358297     0.06470
H1818       H  0.16228348  0.80574650  0.37100004     0.06320
C1819       C  0.30335895  0.74005053  0.27861412     0.02510
C1820       C  0.27968000  0.73882164  0.29897251     0.02510
C1821       C  0.25846519  0.76202075  0.29873379     0.02510
C1822       C  0.25960708  0.78495280  0.27726081     0.02510
C1823       C  0.28217618  0.78494906  0.25574933     0.02510
C1824       C  0.30431747  0.76274496  0.25669650     0.02510
C1825       C  0.19724063  0.75951244  0.37053909    -0.05240
C1826       C  0.22652260  0.76724755  0.37555708    -0.32670
C1827       C  0.24616257  0.76959586  0.35202480     0.36580
C1828       C  0.23678034  0.76330667  0.32307386    -0.05600
C1829       C  0.20753199  0.75519005  0.31800117    -0.32570
C1830       C  0.18773587  0.75341972  0.34151675     0.36490
H1831       H  0.23377639  0.77307130  0.39758683     0.16860
O1832       O  0.27464198  0.77784956  0.35735996    -0.60060
H1833       H  0.20015655  0.75010440  0.29583071     0.16870
O1834       O  0.15884285  0.74709287  0.33582183    -0.60160
H1835       H  0.15701403  0.72565268  0.33957704     0.43870
H1836       H  0.27353435  0.79769284  0.36628233     0.43820
C1837       C  0.21506743  0.86897561  0.27070269    -0.05240
C1838       C  0.23924880  0.86437081  0.28982192    -0.32670
C1839       C  0.25108001  0.83627892  0.29501415     0.36580
C1840       C  0.24049190  0.81192056  0.27934853    -0.05600
C1841       C  0.21632626  0.81605283  0.26018199    -0.32570
C1842       C  0.20345260  0.84420076  0.25598770     0.36490
H1843       H  0.24912842  0.88280114  0.30117317     0.16860
O1844       O  0.27502816  0.83323539  0.31334071    -0.60060
H1845       H  0.20799638  0.79755204  0.24777011     0.16870
O1846       O  0.17912261  0.84696844  0.23820257    -0.60160
H1847       H  0.18672753  0.84662226  0.21773969     0.43870
H1848       H  0.26795907  0.83859319  0.33325865     0.43820
C1849       C  0.01277609  0.69234806  0.37359779    -0.05240
C1850       C  0.99949793  0.66800358  0.36031661    -0.32670
C1851       C  0.01478961  0.64202235  0.35558706     0.36580
C1852       C  0.04410371  0.63880288  0.36579362    -0.05600
C1853       C  0.05867807  0.66448387  0.37518762    -0.32570
C1854       C  0.04319827  0.69108391  0.37943482     0.36490
H1855       H  0.97655346  0.66862808  0.35380288     0.16860
O1856       O  0.99960484  0.61935993  0.34310215    -0.60060
H1857       H  0.08161513  0.66329440  0.38160466     0.16870
O1858       O  0.05791856  0.71559565  0.38884561    -0.60160
H1859       H  0.06994000  0.70916180  0.40596907     0.43870
H1860       H  0.99712793  0.62497737  0.32202765     0.43820
C1861       C  0.92003638  0.66535642  0.29937155    -0.05240
C1862       C  0.90126243  0.67054899  0.32344415    -0.32670
C1863       C  0.88552131  0.64777648  0.33618225     0.36580
C1864       C  0.88741073  0.61961977  0.32387024    -0.05600
C1865       C  0.90933131  0.61361651  0.30286814    -0.32570
C1866       C  0.92500365  0.63651507  0.28989092     0.36490
H1867       H  0.89801134  0.69263411  0.33184161     0.16860
O1868       O  0.86457279  0.65415864  0.35686341    -0.60060
H1869       H  0.91165873  0.59180986  0.29372787     0.16870
O1870       O  0.94488367  0.63052419  0.26807920    -0.60160
H1871       H  0.93316001  0.62985489  0.24957671     0.43870
H1872       H  0.87361173  0.64860672  0.37607552     0.43820
C1873       C  0.95789325  0.75050609  0.18079036    -0.05240
C1874       C  0.95184817  0.78059265  0.17649059    -0.32670
C1875       C  0.92358699  0.79057664  0.16972649     0.36580
C1876       C  0.90135789  0.77007264  0.16438476    -0.05600
C1877       C  0.90729128  0.73984105  0.16896830    -0.32570
C1878       C  0.93509012  0.73012119  0.17781551     0.36490
H1879       H  0.96880357  0.79654005  0.17945200     0.16860
O1880       O  0.91762516  0.82025462  0.16976806    -0.60060
H1881       H  0.89084213  0.72344825  0.16399096     0.16870
O1882       O  0.94030209  0.70051315  0.18135537    -0.60160
H1883       H  0.93222143  0.69546376  0.20100174     0.43870
H1884       H  0.91592202  0.82635165  0.14890801     0.43820
C1885       C  0.95055116  0.89447586  0.13620265    -0.05240
C1886       C  0.94932043  0.90396042  0.16567679    -0.32670
C1887       C  0.96735132  0.89047532  0.18696171     0.36580
C1888       C  0.98522161  0.86638004  0.17895840    -0.05600
C1889       C  0.98018613  0.85272198  0.15184315    -0.32570
C1890       C  0.96101652  0.86536733  0.13133511     0.36490
H1891       H  0.93865443  0.92461840  0.17102051     0.16860
O1892       O  0.96763174  0.90115536  0.21524264    -0.60060
H1893       H  0.99133228  0.83236390  0.14628046     0.16870
O1894       O  0.95635076  0.85109948  0.10505810    -0.60160
H1895       H  0.94769074  0.83177834  0.11002191     0.43870
H1896       H  0.98053506  0.91863470  0.21470873     0.43820
C1897       C  0.08952318  0.89835763  0.30893751    -0.05240
C1898       C  0.11302789  0.88177789  0.31998492    -0.32670
C1899       C  0.14102688  0.89391748  0.32195621     0.36580
C1900       C  0.14581989  0.92335314  0.31202899    -0.05600
C1901       C  0.12067408  0.94044524  0.30478536    -0.32570
C1902       C  0.09293511  0.92803276  0.30272099     0.36490
H1903       H  0.10979728  0.85899518  0.32649127     0.16860
O1904       O  0.16327540  0.87644524  0.33294969    -0.60060
H1905       H  0.12262534  0.96279758  0.29749679     0.16870
O1906       O  0.06929099  0.94499786  0.29442448    -0.60160
H1907       H  0.06481734  0.93927596  0.27381563     0.43870
H1908       H  0.16632172  0.86073843  0.31810603     0.43820
C1909       C  0.05076909  0.82376193  0.39977913    -0.05240
C1910       C  0.07167742  0.84605276  0.39500267    -0.32670
C1911       C  0.10188038  0.83990114  0.39832324     0.36580
C1912       C  0.11082113  0.81043524  0.40031203    -0.05600
C1913       C  0.08993967  0.78842893  0.39701256    -0.32570
C1914       C  0.06087059  0.79477653  0.40269840     0.36490
H1915       H  0.06462253  0.86781363  0.38918625     0.16860
O1916       O  0.12201073  0.86217303  0.40014607    -0.60060
H1917       H  0.09692610  0.76580278  0.39437696     0.16870
O1918       O  0.04283054  0.77246990  0.41116290    -0.60160
H1919       H  0.04096127  0.77447548  0.43285548     0.43870
H1920       H  0.12126825  0.87240032  0.38081065     0.43820
C1921       C  0.93160467  0.78055491  0.02514982    -0.05240
C1922       C  0.93901300  0.76363498  0.05008708    -0.32670
C1923       C  0.91764104  0.75526184  0.07066222     0.36580
C1924       C  0.88819877  0.76504625  0.06764182    -0.05600
C1925       C  0.88084973  0.78240202  0.04286720    -0.32570
C1926       C  0.90217679  0.78992306  0.02159036     0.36490
H1927       H  0.96133017  0.75564968  0.05289687     0.16860
O1928       O  0.92582496  0.73807305  0.09440193    -0.60060
H1929       H  0.85873487  0.79074930  0.04035987     0.16870
O1930       O  0.89441219  0.80715598  0.99776323    -0.60160
H1931       H  0.87942688  0.79585532  0.98672624     0.43870
H1932       H  0.93745110  0.75110180  0.10745024     0.43820
C1933       C  0.99149987  0.87946222  0.05149958    -0.05240
C1934       C  0.00552012  0.85288085  0.05966084    -0.32670
C1935       C  0.99975771  0.82646807  0.04430650     0.36580
C1936       C  0.97923237  0.82620462  0.02078505    -0.05600
C1937       C  0.96491820  0.85254996  0.01309457    -0.32570
C1938       C  0.97168548  0.87899978  0.02731041     0.36490
H1939       H  0.01965488  0.85221255  0.07898305     0.16860
O1940       O  0.01345493  0.80079674  0.05293569    -0.60060
H1941       H  0.94963297  0.85294800  0.99465745     0.16870
O1942       O  0.95728093  0.90424080  0.01861321    -0.60160
H1943       H  0.97093522  0.91427273  0.00494036     0.43870
H1944       H  0.03472421  0.80411933  0.05004053     0.43820
C1945       C  0.46760642  0.62565102  0.00757950    -0.05240
C1946       C  0.47655542  0.65412541  0.99801736    -0.32670
C1947       C  0.49804707  0.67057965  0.01230456     0.36580
C1948       C  0.51081051  0.66055242  0.03872881    -0.05600
C1949       C  0.50117805  0.63333644  0.05021801    -0.32570
C1950       C  0.48032088  0.61574857  0.03476610     0.36490
H1951       H  0.46750913  0.66518064  0.97909310     0.16860
O1952       O  0.50767115  0.69632238  0.99941834    -0.60060
H1953       H  0.51115261  0.62481273  0.07030400     0.16870
O1954       O  0.47384881  0.58852742  0.04603668    -0.60160
H1955       H  0.46019450  0.59228508  0.06257607     0.43870
H1956       H  0.49011563  0.70899259  0.99630200     0.43820
C1957       C  0.38475894  0.75438602  0.20738738    -0.05240
C1958       C  0.38168018  0.77608010  0.22925946    -0.32670
C1959       C  0.35478171  0.78088621  0.24353258     0.36580
C1960       C  0.33028436  0.76343134  0.23652948    -0.05600
C1961       C  0.33338503  0.74140521  0.21502318    -0.32570
C1962       C  0.36029810  0.73670442  0.20067306     0.36490
H1963       H  0.39976827  0.79084720  0.23373702     0.16860
O1964       O  0.35230734  0.80296037  0.26402014    -0.60060
H1965       H  0.31501312  0.72718632  0.20999881     0.16870
O1966       O  0.36224909  0.71539973  0.17939878    -0.60160
H1967       H  0.35252637  0.72388773  0.16164933     0.43870
H1968       H  0.36957382  0.80122368  0.27735834     0.43820
C1969       C  0.46053833  0.71976253  0.12965412    -0.05240
C1970       C  0.45689517  0.71704946  0.09886938    -0.32670
C1971       C  0.48027756  0.70906616  0.08044628     0.36580
C1972       C  0.50736406  0.69947563  0.09259490    -0.05600
C1973       C  0.50903766  0.69683643  0.12374127    -0.32570
C1974       C  0.48645955  0.70786925  0.14217326     0.36490
H1975       H  0.43681988  0.72497792  0.08847809     0.16860
O1976       O  0.47759567  0.71497824  0.05088966    -0.60060
H1977       H  0.52923756  0.68900962  0.13387461     0.16870
O1978       O  0.49134270  0.70965910  0.17197945    -0.60160
H1979       H  0.48311355  0.69125736  0.18027120     0.43870
H1980       H  0.45967555  0.70460978  0.04417274     0.43820
C1981       C  0.04805632  0.76181452  0.87741827    -0.05240
C1982       C  0.05439767  0.74624581  0.90365358    -0.32670
C1983       C  0.03829159  0.75135161  0.92956735     0.36580
C1984       C  0.01694216  0.77394257  0.93018368    -0.05600
C1985       C  0.01127943  0.79012308  0.90439858    -0.32570
C1986       C  0.02546753  0.78326624  0.87795277     0.36490
H1987       H  0.07305726  0.73134655  0.90454183     0.16860
O1988       O  0.04457014  0.73526217  0.95456847    -0.60060
H1989       H  0.99448184  0.80712705  0.90436427     0.16870
O1990       O  0.01846574  0.79889206  0.85284418    -0.60160
H1991       H  0.02412859  0.81956152  0.85683850     0.43870
H1992       H  0.03514532  0.71590980  0.95160980     0.43820
C1993       C  0.27469337  0.86352876  0.20181107    -0.05240
C1994       C  0.26253773  0.83684549  0.19202980    -0.32670
C1995       C  0.26652496  0.81053173  0.20831275     0.36580
C1996       C  0.28331287  0.81043343  0.23456381    -0.05600
C1997       C  0.29551279  0.83706647  0.24415150    -0.32570
C1998       C  0.29116081  0.86331077  0.22825027     0.36490
H1999       H  0.25127392  0.83609915  0.17090770     0.16860
O2000       O  0.25449257  0.78484849  0.19815623    -0.60060
H2001       H  0.30763917  0.83778459  0.26474596     0.16870
O2002       O  0.30408798  0.88866065  0.23810599    -0.60160
H2003       H  0.32496467  0.88695875  0.23228334     0.43870
H2004       H  0.23305468  0.78695536  0.20111668     0.43820
C2005       C  0.07420081  0.84928696  0.00674450    -0.05240
C2006       C  0.04952680  0.86368029  0.99413533    -0.32670
C2007       C  0.02702791  0.84769450  0.97969048     0.36580
C2008       C  0.02702371  0.81649964  0.98021167    -0.05600
C2009       C  0.05282971  0.80244677  0.98947874    -0.32570
C2010       C  0.07664848  0.81835097  0.00111680     0.36490
H2011       H  0.04716045  0.88731967  0.99581724     0.16860
O2012       O  0.00444283  0.86280362  0.96629227    -0.60060
H2013       H  0.05428102  0.77868721  0.98883311     0.16870
O2014       O  0.10260167  0.80336668  0.00543079    -0.60160
H2015       H  0.09831222  0.78721506  0.01958954     0.43870
H2016       H  0.00904377  0.86252561  0.94493410     0.43820
C2017       C  0.25559579  0.64263217  0.93557955    -0.05240
C2018       C  0.25911813  0.65991297  0.90999811    -0.32670
C2019       C  0.27793418  0.65111278  0.88741258     0.36580
C2020       C  0.29022547  0.62246858  0.88760091    -0.05600
C2021       C  0.28746109  0.60576747  0.91396769    -0.32570
C2022       C  0.27052732  0.61554947  0.93755157     0.36490
H2023       H  0.24877265  0.68135341  0.90819016     0.16860
O2024       O  0.28442080  0.67098753  0.86554195    -0.60060
H2025       H  0.29814617  0.58462203  0.91661864     0.16870
O2026       O  0.26909111  0.59845366  0.96258300    -0.60160
H2027       H  0.24847308  0.59168722  0.96361498     0.43870
H2028       H  0.30374367  0.67926319  0.87116035     0.43820
C2029       C  0.38450371  0.63814911  0.96846721    -0.05240
C2030       C  0.39472629  0.65583881  0.99180682    -0.32670
C2031       C  0.37766945  0.66059270  0.01671417     0.36580
C2032       C  0.34789447  0.65245281  0.01627696    -0.05600
C2033       C  0.33613314  0.63957215  0.99063497    -0.32570
C2034       C  0.35407144  0.63317460  0.96658787     0.36490
H2035       H  0.41732460  0.66258222  0.99299478     0.16860
O2036       O  0.39085363  0.67009577  0.04244225    -0.60060
H2037       H  0.31323216  0.63344577  0.98953530     0.16870
O2038       O  0.34211271  0.61998532  0.94229970    -0.60160
H2039       H  0.34300689  0.63505331  0.92640371     0.43870
H2040       H  0.40732940  0.68321707  0.03713978     0.43820
C2041       C  0.39415682  0.80188825  0.11889940    -0.05240
C2042       C  0.40743594  0.81477760  0.09427244    -0.32670
C2043       C  0.40528265  0.80054145  0.06709611     0.36580
C2044       C  0.38794945  0.77483216  0.06473692    -0.05600
C2045       C  0.36945577  0.76723348  0.08805241    -0.32570
C2046       C  0.36959908  0.78393117  0.11367718     0.36490
H2047       H  0.42398344  0.83150905  0.09714640     0.16860
O2048       O  0.42259612  0.80989941  0.04424127    -0.60060
H2049       H  0.35541717  0.74818637  0.08681502     0.16870
O2050       O  0.35129681  0.77612449  0.13629244    -0.60160
H2051       H  0.33792122  0.79321735  0.13875029     0.43870
H2052       H  0.44163693  0.79953704  0.04710388     0.43820
C2053       C  0.13362173  0.79532309  0.88422463    -0.05240
C2054       C  0.16371800  0.78826376  0.88280078    -0.32670
C2055       C  0.17756715  0.77400370  0.90611425     0.36580
C2056       C  0.16215829  0.76900885  0.93224848    -0.05600
C2057       C  0.13446146  0.78143725  0.93616622    -0.32570
C2058       C  0.12019872  0.79529801  0.91247779     0.36490
H2059       H  0.17617244  0.79155841  0.86284276     0.16860
O2060       O  0.20599577  0.76424317  0.90301765    -0.60060
H2061       H  0.12423180  0.78091662  0.95765796     0.16870
O2062       O  0.09441432  0.81022412  0.91754469    -0.60160
H2063       H  0.08113596  0.79620527  0.92747218     0.43870
H2064       H  0.21804284  0.78219616  0.90054202     0.43820
C2065       C  0.21210319  0.85267377  0.98382548    -0.05240
C2066       C  0.21963387  0.85618114  0.01358949    -0.32670
C2067       C  0.19809381  0.85590199  0.03572473     0.36580
C2068       C  0.16824271  0.85322912  0.02795321    -0.05600
C2069       C  0.16090889  0.85068874  0.99777997    -0.32570
C2070       C  0.18224355  0.85099792  0.97604973     0.36490
H2071       H  0.24229155  0.85839265  0.01943098     0.16860
O2072       O  0.20630221  0.85745736  0.06487151    -0.60060
H2073       H  0.13839270  0.85008192  0.99030443     0.16870
O2074       O  0.17347987  0.85145477  0.94699711    -0.60160
H2075       H  0.16832970  0.83092073  0.94231540     0.43870
H2076       H  0.21100195  0.87837898  0.06838330     0.43820
C2077       C  0.32388543  0.88225836  0.11666278    -0.05240
C2078       C  0.30112836  0.86927223  0.10101587    -0.32670
C2079       C  0.30476329  0.86191990  0.07183269     0.36580
C2080       C  0.33292181  0.86231373  0.05926615    -0.05600
C2081       C  0.35711476  0.87075527  0.07668438    -0.32570
C2082       C  0.35245582  0.88154695  0.10535579     0.36490
H2083       H  0.27925369  0.86836074  0.11038386     0.16860
O2084       O  0.28062873  0.85369742  0.05574748    -0.60060
H2085       H  0.37914450  0.86971458  0.06786509     0.16870
O2086       O  0.37560530  0.89073736  0.12213439    -0.60160
H2087       H  0.38002061  0.87404976  0.13570022     0.43870
H2088       H  0.26402374  0.86603426  0.06212596     0.43820
C2089       C  0.13348333  0.72803515  0.80863661    -0.05240
C2090       C  0.12177329  0.71034263  0.78595970    -0.32670
C2091       C  0.14034197  0.69897112  0.76335336     0.36580
C2092       C  0.16994929  0.70836845  0.76151884    -0.05600
C2093       C  0.18078199  0.72593849  0.78410410    -0.32570
C2094       C  0.16445974  0.73116590  0.80931508     0.36490
H2095       H  0.09840888  0.70609831  0.78519547     0.16860
O2096       O  0.12941825  0.67978629  0.74273166    -0.60060
H2097       H  0.20247648  0.73530335  0.78250822     0.16870
O2098       O  0.17893558  0.74121225  0.83390576    -0.60160
H2099       H  0.17921737  0.72436750  0.84792320     0.43870
H2100       H  0.11070187  0.68843523  0.73538866     0.43820
C2101       C  0.21278088  0.65875523  0.76598263    -0.05240
C2102       C  0.20947094  0.62793732  0.76246440    -0.32670
C2103       C  0.22209326  0.60769678  0.78299138     0.36580
C2104       C  0.23566918  0.61808304  0.80891784    -0.05600
C2105       C  0.23278905  0.64823474  0.81500866    -0.32570
C2106       C  0.22458186  0.66855044  0.79309708     0.36490
H2107       H  0.20062313  0.61959725  0.74192286     0.16860
O2108       O  0.22359224  0.57843681  0.77600883    -0.60060
H2109       H  0.24153723  0.65675019  0.83540370     0.16870
O2110       O  0.23399148  0.69701091  0.79617361    -0.60160
H2111       H  0.22815889  0.70342599  0.81622230     0.43870
H2112       H  0.20577290  0.56974650  0.78479355     0.43820
C2113       C  0.29533180  0.60703908  0.74345544    -0.05240
C2114       C  0.29734325  0.63493491  0.75643717    -0.32670
C2115       C  0.27908553  0.65826827  0.74703583     0.36580
C2116       C  0.25819640  0.65401384  0.72419517    -0.05600
C2117       C  0.25525325  0.62574692  0.71227220    -0.32570
C2118       C  0.27303112  0.60235520  0.72238226     0.36490
H2119       H  0.31486415  0.63935127  0.77206874     0.16860
O2120       O  0.28187111  0.68538651  0.76001025    -0.60060
H2121       H  0.23841235  0.62159402  0.69584399     0.16870
O2122       O  0.26984925  0.57513014  0.71017233    -0.60160
H2123       H  0.25617616  0.56453484  0.72338165     0.43870
H2124       H  0.30215385  0.69198110  0.75587595     0.43820
C2125       C  0.64379361  0.72592779  0.96503166    -0.05240
C2126       C  0.61844808  0.74226443  0.97171101    -0.32670
C2127       C  0.59903154  0.73305614  0.99364786     0.36580
C2128       C  0.60449569  0.70690025  0.00978497    -0.05600
C2129       C  0.63001008  0.69049816  0.00341865    -0.32570
C2130       C  0.64977324  0.70024175  0.98155735     0.36490
H2131       H  0.61261220  0.76130442  0.95831141     0.16860
O2132       O  0.57415495  0.74940518  0.99867401    -0.60060
H2133       H  0.63486760  0.67056468  0.01580276     0.16870
O2134       O  0.67436390  0.68399115  0.97559951    -0.60160
H2135       H  0.68989875  0.69206758  0.98859559     0.43870
H2136       H  0.55895813  0.74104125  0.98544864     0.43820
C2137       C  0.30977204  0.71671679  0.63483053    -0.05240
C2138       C  0.28116647  0.71396814  0.62326136    -0.32670
C2139       C  0.25822259  0.70213916  0.64077084     0.36580
C2140       C  0.26253848  0.69664859  0.67147970    -0.05600
C2141       C  0.29180226  0.69572016  0.68132495    -0.32570
C2142       C  0.31508807  0.70329513  0.66272064     0.36490
H2143       H  0.27621268  0.72209747  0.60125910     0.16860
O2144       O  0.23110607  0.69812512  0.62820940    -0.60060
H2145       H  0.29711758  0.69096200  0.70395086     0.16870
O2146       O  0.34312850  0.69894047  0.67290160    -0.60160
H2147       H  0.34988031  0.68048725  0.66345083     0.43870
H2148       H  0.23015319  0.67680764  0.62375327     0.43820
C2149       C  0.54305304  0.61672581  0.96064963    -0.05240
C2150       C  0.54753150  0.60565366  0.98935194    -0.32670
C2151       C  0.55926257  0.62378889  0.01181769     0.36580
C2152       C  0.56416978  0.65424447  0.00657144    -0.05600
C2153       C  0.56350762  0.66385355  0.97706526    -0.32570
C2154       C  0.55435600  0.64512186  0.95420483     0.36490
H2155       H  0.53977599  0.58384549  0.99501551     0.16860
O2156       O  0.56258675  0.61240769  0.03973117    -0.60060
H2157       H  0.56726162  0.68668459  0.97161361     0.16870
O2158       O  0.55388029  0.65566067  0.92568538    -0.60160
H2159       H  0.54251941  0.67436986  0.92602388     0.43870
H2160       H  0.58376047  0.60754468  0.04155372     0.43820
C2161       C  0.45777639  0.72286679  0.63535656    -0.05240
C2162       C  0.43524952  0.71626409  0.65534980    -0.32670
C2163       C  0.41033803  0.73418836  0.65739053     0.36580
C2164       C  0.40507222  0.75691166  0.63638772    -0.05600
C2165       C  0.42803001  0.76320608  0.61644315    -0.32570
C2166       C  0.45372217  0.74615077  0.61542595     0.36490
H2167       H  0.43809797  0.69887115  0.67157556     0.16860
O2168       O  0.39218099  0.72985064  0.68096335    -0.60060
H2169       H  0.42597648  0.78051686  0.60017818     0.16870
O2170       O  0.47435358  0.75110346  0.59392479    -0.60160
H2171       H  0.47518795  0.77257696  0.59064970     0.43870
H2172       H  0.39549211  0.74694420  0.69406621     0.43820
C2173       C  0.54204948  0.81638167  0.64155184    -0.05240
C2174       C  0.51423444  0.80781860  0.63138538    -0.32670
C2175       C  0.49038092  0.82760797  0.63150509     0.36580
C2176       C  0.49442449  0.85719691  0.64003775    -0.05600
C2177       C  0.52304278  0.86553188  0.64884597    -0.32570
C2178       C  0.54639527  0.84574272  0.64948323     0.36490
H2179       H  0.51049019  0.78514917  0.62556177     0.16860
O2180       O  0.46324556  0.81775470  0.62308896    -0.60060
H2181       H  0.52837177  0.88770672  0.65435425     0.16870
O2182       O  0.57349720  0.85529398  0.65860559    -0.60160
H2183       H  0.58362024  0.86152423  0.64030938     0.43870
H2184       H  0.45084356  0.81888842  0.64095705     0.43820
C2185       C  0.58973958  0.84734687  0.77482053    -0.05240
C2186       C  0.58301329  0.85531747  0.80406337    -0.32670
C2187       C  0.60542010  0.85854977  0.82498806     0.36580
C2188       C  0.63452766  0.85699808  0.81522056    -0.05600
C2189       C  0.64023609  0.83991259  0.79007976    -0.32570
C2190       C  0.61822720  0.83709559  0.76854027     0.36490
H2191       H  0.56086076  0.86152180  0.81006159     0.16860
O2192       O  0.59919268  0.87051500  0.85200440    -0.60060
H2193       H  0.66271161  0.83532485  0.78387713     0.16870
O2194       O  0.62518007  0.82668996  0.74103684    -0.60160
H2195       H  0.63258337  0.80634608  0.74419856     0.43870
H2196       H  0.59581535  0.89182810  0.84832922     0.43820
C2197       C  0.56041399  0.78279550  0.85645866    -0.05240
C2198       C  0.58554490  0.78161656  0.83876315    -0.32670
C2199       C  0.60860110  0.76236601  0.84541371     0.36580
C2200       C  0.60945127  0.74725792  0.87285913    -0.05600
C2201       C  0.58455314  0.75008585  0.89140093    -0.32570
C2202       C  0.56008637  0.76688062  0.88298097     0.36490
H2203       H  0.58590631  0.79286536  0.81763909     0.16860
O2204       O  0.62906428  0.75747276  0.82392995    -0.60060
H2205       H  0.58361323  0.73977457  0.91290226     0.16870
O2206       O  0.53581410  0.76738831  0.90075193    -0.60160
H2207       H  0.53913000  0.78394090  0.91453412     0.43870
H2208       H  0.62242579  0.73947403  0.81361513     0.43820
C2209       C  0.45366850  0.69010825  0.85393712    -0.05240
C2210       C  0.43183862  0.66999101  0.86187426    -0.32670
C2211       C  0.43881863  0.64634886  0.88084392     0.36580
C2212       C  0.46804642  0.64277788  0.89070438    -0.05600
C2213       C  0.48960096  0.66249271  0.88141765    -0.32570
C2214       C  0.48252082  0.68638989  0.86405950     0.36490
H2215       H  0.40974665  0.67240375  0.85313781     0.16860
O2216       O  0.41766202  0.62631485  0.88842889    -0.60060
H2217       H  0.51246152  0.65888668  0.88693559     0.16870
O2218       O  0.50454771  0.70476941  0.85508465    -0.60160
H2219       H  0.50781371  0.71837622  0.87179327     0.43870
H2220       H  0.40120291  0.63795062  0.89673088     0.43820
C2221       C  0.44065969  0.64170905  0.71761265    -0.05240
C2222       C  0.41440770  0.65545187  0.72557904    -0.32670
C2223       C  0.38784637  0.64305541  0.71752511     0.36580
C2224       C  0.38815178  0.61584200  0.70267090    -0.05600
C2225       C  0.41395955  0.60696154  0.68829182    -0.32570
C2226       C  0.44067535  0.61936940  0.69649514     0.36490
H2227       H  0.41447264  0.67407775  0.74045721     0.16860
O2228       O  0.36267310  0.65354370  0.73040216    -0.60060
H2229       H  0.41428255  0.58788777  0.67433767     0.16870
O2230       O  0.46648392  0.60749607  0.68643964    -0.60160
H2231       H  0.47095836  0.59081676  0.69999823     0.43870
H2232       H  0.35934004  0.67337132  0.72179644     0.43820
C2233       C  0.59108471  0.98763474  0.73184633    -0.05240
C2234       C  0.61992191  0.98344010  0.72110104    -0.32670
C2235       C  0.64022985  0.96416033  0.73564274     0.36580
C2236       C  0.63249404  0.95006009  0.76250056    -0.05600
C2237       C  0.60370556  0.95513747  0.77274820    -0.32570
C2238       C  0.58286323  0.97148470  0.75703924     0.36490
H2239       H  0.62716004  0.99619367  0.70225309     0.16860
O2240       O  0.66759110  0.96030533  0.72385718    -0.60060
H2241       H  0.59698359  0.94739810  0.79430626     0.16870
O2242       O  0.55570302  0.97590361  0.76953121    -0.60160
H2243       H  0.54871232  0.95646337  0.77661617     0.43870
H2244       H  0.66599654  0.94251241  0.71138001     0.43820
C2245       C  0.54410807  0.99017547  0.68190080    -0.05240
C2246       C  0.54090575  0.99525844  0.65101613    -0.32670
C2247       C  0.52639650  0.97479584  0.63212886     0.36580
C2248       C  0.51539781  0.94803258  0.64362138    -0.05600
C2249       C  0.52156256  0.94230306  0.67374359    -0.32570
C2250       C  0.53435890  0.96281663  0.69255386     0.36490
H2251       H  0.54744532  0.01632386  0.64193218     0.16860
O2252       O  0.52104895  0.98241022  0.60328099    -0.60060
H2253       H  0.51479014  0.92217944  0.68438428     0.16870
O2254       O  0.53253461  0.95736482  0.72211013    -0.60160
H2255       H  0.54325501  0.93854359  0.72554783     0.43870
H2256       H  0.53962682  0.97815120  0.59283804     0.43820
C2257       C  0.47677114  0.13574480  0.74878553    -0.05240
C2258       C  0.46970364  0.10657262  0.75645981    -0.32670
C2259       C  0.48492806  0.08244719  0.74445171     0.36580
C2260       C  0.51035164  0.08722221  0.72761490    -0.05600
C2261       C  0.51918304  0.11645876  0.72226752    -0.32570
C2262       C  0.50262224  0.14046053  0.73261145     0.36490
H2263       H  0.45108833  0.10235669  0.77039963     0.16860
O2264       O  0.47559432  0.05418031  0.74999998    -0.60060
H2265       H  0.53944746  0.12061070  0.71059890     0.16870
O2266       O  0.51106282  0.16856849  0.72567385    -0.60160
H2267       H  0.52420206  0.17455869  0.74207560     0.43870
H2268       H  0.47230377  0.05258522  0.77156588     0.43820
C2269       C  0.13131612  0.79268212  0.73210322    -0.05240
C2270       C  0.16083561  0.79985928  0.72656478    -0.32670
C2271       C  0.18128995  0.77778745  0.72034806     0.36580
C2272       C  0.17180676  0.74934082  0.71254229    -0.05600
C2273       C  0.14122439  0.74456312  0.71062766    -0.32570
C2274       C  0.12109420  0.76537790  0.72191200     0.36490
H2275       H  0.16915726  0.82113850  0.73332070     0.16860
O2276       O  0.21018508  0.78344425  0.72623534    -0.60060
H2277       H  0.13325022  0.72328492  0.70375072     0.16870
O2278       O  0.09244629  0.75742351  0.72615919    -0.60160
H2279       H  0.08183630  0.76457509  0.70831682     0.43870
H2280       H  0.21303743  0.77848592  0.74741271     0.43820
C2281       C  0.45299345  0.02407383  0.64607110    -0.05240
C2282       C  0.47097591  0.04884479  0.64128103    -0.32670
C2283       C  0.49507225  0.05509898  0.66030565     0.36580
C2284       C  0.50117108  0.03699426  0.68514818    -0.05600
C2285       C  0.48267535  0.01286797  0.69018532    -0.32570
C2286       C  0.46014780  0.00551555  0.67041280     0.36490
H2287       H  0.46594483  0.06377978  0.62319118     0.16860
O2288       O  0.51292134  0.07848294  0.65401659    -0.60060
H2289       H  0.48678096  0.99854094  0.70898201     0.16870
O2290       O  0.44514572  0.97985283  0.67531903    -0.60160
H2291       H  0.45261115  0.96592387  0.66035545     0.43870
H2292       H  0.50206966  0.09607594  0.66096178     0.43820
C2293       C  0.25356007  0.79083434  0.63649035    -0.05240
C2294       C  0.26208371  0.78592659  0.66631117    -0.32670
C2295       C  0.24986807  0.76409901  0.68389138     0.36580
C2296       C  0.22542965  0.74829345  0.67404503    -0.05600
C2297       C  0.21351300  0.75570479  0.64594555    -0.32570
C2298       C  0.22788044  0.77622536  0.62692144     0.36490
H2299       H  0.27979490  0.79786152  0.67640286     0.16860
O2300       O  0.26207283  0.75827417  0.71119051    -0.60060
H2301       H  0.19452984  0.74391746  0.63783343     0.16870
O2302       O  0.21758505  0.78042299  0.59876753    -0.60160
H2303       H  0.20213175  0.79572286  0.60055452     0.43870
H2304       H  0.28220169  0.75086975  0.70742779     0.43820
C2305       C  0.35873175  0.98089098  0.63577728    -0.05240
C2306       C  0.37736218  0.95605074  0.63965022    -0.32670
C2307       C  0.36520496  0.92806348  0.64335969     0.36580
C2308       C  0.33488583  0.92645134  0.64755256    -0.05600
C2309       C  0.31792196  0.94677095  0.63132497    -0.32570
C2310       C  0.32871753  0.97555130  0.62883333     0.36490
H2311       H  0.40096462  0.95828850  0.64085816     0.16860
O2312       O  0.38292515  0.90489190  0.65150402    -0.60060
H2313       H  0.29442793  0.94348737  0.62941743     0.16870
O2314       O  0.30933450  0.99797929  0.62254662    -0.60160
H2315       H  0.30646909  0.00844810  0.64145971     0.43870
H2316       H  0.38299951  0.89163348  0.63419378     0.43820
C2317       C  0.28565554  0.85170941  0.72229403    -0.05240
C2318       C  0.31389432  0.84058833  0.71622161    -0.32670
C2319       C  0.32410709  0.83875547  0.68716891     0.36580
C2320       C  0.30631152  0.84881333  0.66371213    -0.05600
C2321       C  0.27784557  0.85947107  0.66989040    -0.32570
C2322       C  0.26729162  0.86024695  0.69871606     0.36490
H2323       H  0.32868974  0.83496495  0.73424449     0.16860
O2324       O  0.35127117  0.82680902  0.68185274    -0.60060
H2325       H  0.26322542  0.86615996  0.65209201     0.16870
O2326       O  0.24006999  0.87219305  0.70383546    -0.60160
H2327       H  0.22656250  0.85515773  0.70450996     0.43870
H2328       H  0.36455447  0.84389349  0.67965207     0.43820
C2329       C  0.18019960  0.90800637  0.81561833    -0.05240
C2330       C  0.17333981  0.89119049  0.84044677    -0.32670
C2331       C  0.15617915  0.86600873  0.83727336     0.36580
C2332       C  0.14771854  0.85717965  0.80877228    -0.05600
C2333       C  0.15514650  0.87427659  0.78416406    -0.32570
C2334       C  0.17000718  0.90017691  0.78763017     0.36490
H2335       H  0.17961319  0.89862176  0.86229096     0.16860
O2336       O  0.14563319  0.85205537  0.86182690    -0.60060
H2337       H  0.14695001  0.86890144  0.76231017     0.16870
O2338       O  0.17214940  0.91879301  0.76391823    -0.60160
H2339       H  0.15399170  0.93095146  0.76421074     0.43870
H2340       H  0.16276826  0.84885470  0.87510856     0.43820
C2341       C  0.20906358  0.02456275  0.88717805    -0.05240
C2342       C  0.17983256  0.03269620  0.88211315    -0.32670
C2343       C  0.15765099  0.01201102  0.88602446     0.36580
C2344       C  0.16345889  0.98534957  0.90142684    -0.05600
C2345       C  0.19208527  0.98029201  0.91219483    -0.32570
C2346       C  0.21479894  0.99989879  0.90535469     0.36490
H2347       H  0.17493874  0.05217556  0.86894384     0.16860
O2348       O  0.12992759  0.01913132  0.87638435    -0.60060
H2349       H  0.19681996  0.96098259  0.92560256     0.16870
O2350       O  0.24319045  0.99227155  0.91228329    -0.60160
H2351       H  0.24821677  0.00430162  0.92977748     0.43870
H2352       H  0.12957203  0.01358176  0.85524157     0.43820
C2353       C  0.25642394  0.12325382  0.78810749    -0.05240
C2354       C  0.22555796  0.12497112  0.78672257    -0.32670
C2355       C  0.20904368  0.12754724  0.81270708     0.36580
C2356       C  0.22352032  0.12931027  0.84012859    -0.05600
C2357       C  0.25428612  0.13223945  0.84049649    -0.32570
C2358       C  0.27050636  0.13173048  0.81441167     0.36490
H2359       H  0.21426664  0.11948235  0.76637099     0.16860
O2360       O  0.17896915  0.12749537  0.81118881    -0.60060
H2361       H  0.26584780  0.13541375  0.86120365     0.16870
O2362       O  0.30069154  0.13095980  0.81608283    -0.60160
H2363       H  0.30664161  0.14790730  0.82840719     0.43870
H2364       H  0.17329417  0.10664344  0.81416327     0.43820
C2365       C  0.37805795  0.06250977  0.70210960    -0.05240
C2366       C  0.37515072  0.08255085  0.67850763    -0.32670
C2367       C  0.38556491  0.11136289  0.68147312     0.36580
C2368       C  0.39718001  0.12011717  0.70880463    -0.05600
C2369       C  0.40084638  0.09941740  0.73150633    -0.32570
C2370       C  0.39346048  0.07033637  0.72756511     0.36490
H2371       H  0.36258184  0.07667092  0.65904276     0.16860
O2372       O  0.38243410  0.13093742  0.65857532    -0.60060
H2373       H  0.40794322  0.10634091  0.75309553     0.16870
O2374       O  0.39680255  0.05079319  0.75066304    -0.60160
H2375       H  0.38194330  0.05660130  0.76547557     0.43870
H2376       H  0.36198338  0.13836876  0.65993675     0.43820
C2377       C  0.28771527  0.23916115  0.83833164    -0.05240
C2378       C  0.26385286  0.22609709  0.82451142    -0.32670
C2379       C  0.24534040  0.20691670  0.83917151     0.36580
C2380       C  0.24934246  0.20043618  0.86999926    -0.05600
C2381       C  0.27484609  0.21231890  0.88349065    -0.32570
C2382       C  0.29411577  0.23113313  0.86778352     0.36490
H2383       H  0.25857286  0.23201910  0.80182476     0.16860
O2384       O  0.22427976  0.19411487  0.82187560    -0.60060
H2385       H  0.27985362  0.20753394  0.90637446     0.16870
O2386       O  0.31773927  0.24319247  0.88206528    -0.60160
H2387       H  0.33481520  0.23103402  0.87608776     0.43870
H2388       H  0.20996856  0.20997957  0.81700615     0.43820
C2389       C  0.34414926  0.23658352  0.80392170    -0.05240
C2390       C  0.37463572  0.24048468  0.80814265    -0.32670
C2391       C  0.39528057  0.22000215  0.79704260     0.36580
C2392       C  0.38561204  0.19406585  0.78303312    -0.05600
C2393       C  0.35532906  0.18783079  0.78435406    -0.32570
C2394       C  0.33474761  0.20921352  0.79285417     0.36490
H2395       H  0.38253831  0.26124465  0.81666809     0.16860
O2396       O  0.42442881  0.22733468  0.79695008    -0.60060
H2397       H  0.34695480  0.16731746  0.77575131     0.16870
O2398       O  0.30589681  0.20490657  0.78545622    -0.60160
H2399       H  0.29980535  0.18689520  0.79594238     0.43870
H2400       H  0.43182116  0.22189263  0.81688641     0.43820
C2401       C  0.21682943  0.36784232  0.75651985    -0.05240
C2402       C  0.22234157  0.33817368  0.74824142    -0.32670
C2403       C  0.24207729  0.31985412  0.76284352     0.36580
C2404       C  0.25782386  0.32999782  0.78720058    -0.05600
C2405       C  0.25212749  0.35878149  0.79732534    -0.32570
C2406       C  0.23186849  0.37765750  0.78225150     0.36490
H2407       H  0.21187124  0.32755384  0.73010336     0.16860
O2408       O  0.24718163  0.29201451  0.75204493    -0.60060
H2409       H  0.26449587  0.36716374  0.81592823     0.16870
O2410       O  0.22823668  0.40581433  0.79227108    -0.60160
H2411       H  0.21458557  0.40412083  0.80915576     0.43870
H2412       H  0.22840443  0.28124016  0.75389487     0.43820
C2413       C  0.20389367  0.26568716  0.87378146    -0.05240
C2414       C  0.23053473  0.27353135  0.88761702    -0.32670
C2415       C  0.25374508  0.28662623  0.87139793     0.36580
C2416       C  0.25184059  0.29000341  0.84024785    -0.05600
C2417       C  0.22395372  0.28570896  0.82754302    -0.32570
C2418       C  0.20001732  0.27525423  0.84407089     0.36490
H2419       H  0.23412540  0.26805397  0.91065751     0.16860
O2420       O  0.27936842  0.29333579  0.88579649    -0.60060
H2421       H  0.22061846  0.28834228  0.80423003     0.16870
O2422       O  0.17272327  0.27487112  0.83095037    -0.60160
H2423       H  0.17472085  0.26297068  0.81275956     0.43870
H2424       H  0.27756147  0.31449441  0.89075840     0.43820
C2425       C  0.96324396  0.27641388  0.64396322    -0.05240
C2426       C  0.94269322  0.25547489  0.63542841    -0.32670
C2427       C  0.91331161  0.26268097  0.63346204     0.36580
C2428       C  0.90390172  0.29222844  0.63640497    -0.05600
C2429       C  0.92489491  0.31404968  0.64196380    -0.32570
C2430       C  0.95454762  0.30614282  0.64661189     0.36490
H2431       H  0.94894911  0.23244551  0.63371625     0.16860
O2432       O  0.89389073  0.24027794  0.62886191    -0.60060
H2433       H  0.91818062  0.33690635  0.64353890     0.16870
O2434       O  0.97411426  0.32684964  0.65631296    -0.60160
H2435       H  0.97486529  0.34198061  0.64048534     0.43870
H2436       H  0.88976199  0.23234752  0.64870921     0.43820
C2437       C  0.07348329  0.34996805  0.62467113    -0.05240
C2438       C  0.09770190  0.33121198  0.61962736    -0.32670
C2439       C  0.10341569  0.30737500  0.63911595     0.36580
C2440       C  0.08463977  0.30270672  0.66315718    -0.05600
C2441       C  0.06003640  0.32059328  0.66661975    -0.32570
C2442       C  0.05443396  0.34399755  0.64813203     0.36490
H2443       H  0.11183474  0.33493855  0.60088038     0.16860
O2444       O  0.12709702  0.28925743  0.63479144    -0.60060
H2445       H  0.04516753  0.31686804  0.68461853     0.16870
O2446       O  0.02932654  0.36036039  0.65224952    -0.60160
H2447       H  0.02993035  0.36697760  0.67306348     0.43870
H2448       H  0.12106502  0.27573160  0.61879019     0.43820
C2449       C  0.89957624  0.18413556  0.72400505    -0.05240
C2450       C  0.88536713  0.17884091  0.69701668    -0.32670
C2451       C  0.87624459  0.15044488  0.68961547     0.36580
C2452       C  0.88233844  0.12687287  0.70913396    -0.05600
C2453       C  0.89667865  0.13269442  0.73609386    -0.32570
C2454       C  0.90469076  0.16077245  0.74376124     0.36490
H2455       H  0.88129451  0.19662938  0.68167243     0.16860
O2456       O  0.86063115  0.14604436  0.66397415    -0.60060
H2457       H  0.90073446  0.11567650  0.75244144     0.16870
O2458       O  0.91869849  0.16472940  0.77030278    -0.60160
H2459       H  0.90276932  0.16557131  0.78511030     0.43870
H2460       H  0.87320421  0.15329454  0.64771126     0.43820
C2461       C  0.12863949  0.31723270  0.78463800    -0.05240
C2462       C  0.14751240  0.30758911  0.76229952    -0.32670
C2463       C  0.14948982  0.32311424  0.73592817     0.36580
C2464       C  0.13748724  0.35174751  0.73360247    -0.05600
C2465       C  0.11990803  0.36215056  0.75703207    -0.32570
C2466       C  0.11558537  0.34518514  0.78233736     0.36490
H2467       H  0.15663449  0.28547443  0.76319604     0.16860
O2468       O  0.16385980  0.31037128  0.71268816    -0.60060
H2469       H  0.10966853  0.38365849  0.75614295     0.16870
O2470       O  0.09602686  0.35476060  0.80312883    -0.60160
H2471       H  0.10823626  0.35974867  0.82055953     0.43870
H2472       H  0.14989077  0.29606343  0.70418130     0.43820
C2473       C  0.97475979  0.16757725  0.85419699    -0.05240
C2474       C  0.98619847  0.14777065  0.83336828    -0.32670
C2475       C  0.01072733  0.12987959  0.84015650     0.36580
C2476       C  0.02330547  0.13046122  0.86875786    -0.05600
C2477       C  0.01277379  0.15187671  0.88851068    -0.32570
C2478       C  0.98809539  0.16894253  0.88218747     0.36490
H2479       H  0.97761865  0.14777158  0.81100043     0.16860
O2480       O  0.02354549  0.11338757  0.81832496    -0.60060
H2481       H  0.02297628  0.15515927  0.90970895     0.16870
O2482       O  0.97725896  0.18742504  0.90351671    -0.60160
H2483       H  0.99235057  0.20278504  0.90647068     0.43870
H2484       H  0.00769896  0.10154586  0.80925458     0.43820
C2485       C  0.11163386  0.22517115  0.87695235    -0.05240
C2486       C  0.11029121  0.25605554  0.87867101    -0.32670
C2487       C  0.08411972  0.27043883  0.88398447     0.36580
C2488       C  0.05763427  0.25517696  0.88402676    -0.05600
C2489       C  0.05814133  0.22432909  0.88192183    -0.32570
C2490       C  0.08509779  0.20920910  0.87901652     0.36490
H2491       H  0.12985495  0.26941696  0.87845182     0.16860
O2492       O  0.08425248  0.30025301  0.88766112    -0.60060
H2493       H  0.03782015  0.21217145  0.88117344     0.16870
O2494       O  0.08539374  0.17902125  0.87857782    -0.60160
H2495       H  0.08249854  0.17370941  0.85757063     0.43870
H2496       H  0.07888894  0.30331979  0.90862735     0.43820
C2497       C  0.92649354  0.99766543  0.79147440    -0.05240
C2498       C  0.93809881  0.01794281  0.77150142    -0.32670
C2499       C  0.92190188  0.04245572  0.76206717     0.36580
C2500       C  0.89096054  0.04354473  0.76627650    -0.05600
C2501       C  0.87911250  0.02322990  0.78671567    -0.32570
C2502       C  0.89707779  0.00147492  0.80048309     0.36490
H2503       H  0.96093611  0.01597534  0.76509279     0.16860
O2504       O  0.93707540  0.06632365  0.75139802    -0.60060
H2505       H  0.85587462  0.02360805  0.79154567     0.16870
O2506       O  0.88501201  0.98251081  0.82062428    -0.60160
H2507       H  0.89110147  0.99014497  0.84017258     0.43870
H2508       H  0.94941131  0.05899282  0.73497962     0.43820
C2509       C  0.99046486  0.04130479  0.88295180    -0.05240
C2510       C  0.98787333  0.01214289  0.89317722    -0.32670
C2511       C  0.97503380  0.99030204  0.87490328     0.36580
C2512       C  0.96875702  0.99641505  0.84456857    -0.05600
C2513       C  0.96878728  0.02625644  0.83627769    -0.32570
C2514       C  0.97629169  0.04840204  0.85604292     0.36490
H2515       H  0.99705593  0.00592733  0.91443948     0.16860
O2516       O  0.97150646  0.96243239  0.88602129    -0.60060
H2517       H  0.96550089  0.03324347  0.81403671     0.16870
O2518       O  0.97316466  0.07712758  0.84708530    -0.60160
H2519       H  0.95629753  0.08489541  0.85841611     0.43870
H2520       H  0.95027105  0.96084308  0.89033193     0.43820
C2521       C  0.06101440  0.96854195  0.88358195    -0.05240
C2522       C  0.04609625  0.94149945  0.88438161    -0.32670
C2523       C  0.02456531  0.93446947  0.86303529     0.36580
C2524       C  0.01744880  0.95467822  0.84023942    -0.05600
C2525       C  0.03362775  0.98105269  0.83860296    -0.32570
C2526       C  0.05490424  0.98812844  0.86003227     0.36490
H2527       H  0.05116801  0.92569845  0.90171924     0.16860
O2528       O  0.00909868  0.90878072  0.86588686    -0.60060
H2529       H  0.02890532  0.99677924  0.82110193     0.16870
O2530       O  0.06998847  0.01402916  0.85727886    -0.60160
H2531       H  0.06394093  0.02614075  0.87433356     0.43870
H2532       H  0.02339570  0.89278579  0.86182531     0.43820
C2533       C  0.01420317  0.90491010  0.79762508    -0.05240
C2534       C  0.00757292  0.87483483  0.80147267    -0.32670
C2535       C  0.02701775  0.85278993  0.79201077     0.36580
C2536       C  0.05388361  0.86044717  0.77915590    -0.05600
C2537       C  0.06065307  0.89047062  0.77557955    -0.32570
C2538       C  0.04131138  0.91257800  0.78499186     0.36490
H2539       H  0.98653241  0.86852159  0.81049884     0.16860
O2540       O  0.01993169  0.82377042  0.79601762    -0.60060
H2541       H  0.08178856  0.89675198  0.76670754     0.16870
O2542       O  0.04789652  0.94152154  0.77939742    -0.60160
H2543       H  0.06406920  0.94635449  0.79326282     0.43870
H2544       H  0.00983824  0.81794604  0.77751374     0.43820
C2545       C  0.77015123  0.16486972  0.73167550    -0.05240
C2546       C  0.79381610  0.16411642  0.75167712    -0.32670
C2547       C  0.80960085  0.13795114  0.75701909     0.36580
C2548       C  0.80217786  0.11185551  0.74195509    -0.05600
C2549       C  0.77770791  0.11251015  0.72276836    -0.32570
C2550       C  0.76243957  0.13883310  0.71692563     0.36490
H2551       H  0.79976757  0.18386508  0.76353249     0.16860
O2552       O  0.83403025  0.13880417  0.77483759    -0.60060
H2553       H  0.77236387  0.09316594  0.70994238     0.16870
O2554       O  0.73930833  0.13874459  0.69740579    -0.60160
H2555       H  0.74817778  0.14235080  0.67780228     0.43870
H2556       H  0.82712065  0.13247435  0.79457740     0.43820
C2557       C  0.77605558  0.21618742  0.69022348    -0.05240
C2558       C  0.80370723  0.22496861  0.70033702    -0.32670
C2559       C  0.82424173  0.23763269  0.68099918     0.36580
C2560       C  0.81688731  0.24279788  0.65074150    -0.05600
C2561       C  0.79065275  0.23031353  0.64014274    -0.32570
C2562       C  0.77076967  0.21647184  0.65948781     0.36490
H2563       H  0.80870526  0.22395962  0.72373472     0.16860
O2564       O  0.85154165  0.24451463  0.69194316    -0.60060
H2565       H  0.78458422  0.23277607  0.61710994     0.16870
O2566       O  0.74487028  0.20576765  0.64848865    -0.60160
H2567       H  0.74964961  0.18571512  0.64138917     0.43870
H2568       H  0.84826736  0.25819714  0.70860958     0.43820
C2569       C  0.76782450  0.30594276  0.65836793    -0.05240
C2570       C  0.74363707  0.28969074  0.64784363    -0.32670
C2571       C  0.72831822  0.26997587  0.66659579     0.36580
C2572       C  0.73751509  0.26551602  0.69618342    -0.05600
C2573       C  0.76048321  0.28290708  0.70695728    -0.32570
C2574       C  0.77567535  0.30249801  0.68855142     0.36490
H2575       H  0.73634383  0.29253324  0.62520187     0.16860
O2576       O  0.70554954  0.25387827  0.65528770    -0.60060
H2577       H  0.76823274  0.27962347  0.72941851     0.16870
O2578       O  0.79873872  0.31795414  0.70030321    -0.60160
H2579       H  0.81463348  0.30331005  0.70349484     0.43870
H2580       H  0.68758921  0.26514070  0.66035637     0.43820
C2581       C  0.62833900  0.28858406  0.74456869    -0.05240
C2582       C  0.65517112  0.29832094  0.75667993    -0.32670
C2583       C  0.68172476  0.28323326  0.75121051     0.36580
C2584       C  0.68188046  0.25782907  0.73349717    -0.05600
C2585       C  0.65516813  0.24796564  0.72176691    -0.32570
C2586       C  0.62868031  0.26266858  0.72754812     0.36490
H2587       H  0.65584901  0.31882188  0.76876717     0.16860
O2588       O  0.70728866  0.29312030  0.76372910    -0.60060
H2589       H  0.65466469  0.22781615  0.70905897     0.16870
O2590       O  0.60314279  0.25228701  0.71540232    -0.60160
H2591       H  0.60621758  0.25263602  0.69373819     0.43870
H2592       H  0.71453590  0.30849610  0.75000416     0.43820
C2593       C  0.74202044  0.45782671  0.63045881    -0.05240
C2594       C  0.72983952  0.43025837  0.62534931    -0.32670
C2595       C  0.74727153  0.40507469  0.62738612     0.36580
C2596       C  0.77746755  0.40776021  0.63427201    -0.05600
C2597       C  0.79033540  0.43571969  0.63453264    -0.32570
C2598       C  0.77272307  0.46090592  0.63174320     0.36490
H2599       H  0.70616811  0.42795105  0.62403852     0.16860
O2600       O  0.73465554  0.37770151  0.62464726    -0.60060
H2601       H  0.81377782  0.43791303  0.63795485     0.16870
O2602       O  0.78524157  0.48816750  0.63467808    -0.60160
H2603       H  0.78001917  0.49915760  0.61639799     0.43870
H2604       H  0.71729874  0.37950751  0.61142131     0.43820
C2605       C  0.80940135  0.57841903  0.65810481    -0.05240
C2606       C  0.83625000  0.57330340  0.67249494    -0.32670
C2607       C  0.86051307  0.56306998  0.65692915     0.36580
C2608       C  0.85918060  0.56061831  0.62577323    -0.05600
C2609       C  0.83344376  0.57009857  0.61104531    -0.32570
C2610       C  0.80831721  0.57793834  0.62709043     0.36490
H2611       H  0.83721909  0.57261296  0.69642545     0.16860
O2612       O  0.88325421  0.55081534  0.67288602    -0.60060
H2613       H  0.83192729  0.56892860  0.58720401     0.16870
O2614       O  0.78235694  0.58326964  0.61246245    -0.60160
H2615       H  0.77445568  0.56356625  0.60760455     0.43870
H2616       H  0.89561687  0.56752171  0.67894999     0.43820
C2617       C  0.70554013  0.41541354  0.86276744    -0.05240
C2618       C  0.69653453  0.44408016  0.86937478    -0.32670
C2619       C  0.67187071  0.44967918  0.88564131     0.36580
C2620       C  0.65679080  0.42644875  0.89913479    -0.05600
C2621       C  0.66539558  0.39717424  0.89327148    -0.32570
C2622       C  0.68954503  0.39154908  0.87445869     0.36490
H2623       H  0.70780177  0.46281079  0.86052267     0.16860
O2624       O  0.66222135  0.47829530  0.88772632    -0.60060
H2625       H  0.65340001  0.37900183  0.90290112     0.16870
O2626       O  0.69733977  0.36314230  0.86795544    -0.60160
H2627       H  0.71024690  0.35670157  0.88450290     0.43870
H2628       H  0.64809428  0.48099882  0.87118469     0.43820
C2629       C  0.69820415  0.37417355  0.71836705    -0.05240
C2630       C  0.67883618  0.38010601  0.74117138    -0.32670
C2631       C  0.64884570  0.37643190  0.73727091     0.36580
C2632       C  0.63756665  0.36581220  0.70993343    -0.05600
C2633       C  0.65742674  0.35915279  0.68733978    -0.32570
C2634       C  0.68751822  0.36275091  0.69167673     0.36490
H2635       H  0.68673161  0.38902576  0.76187801     0.16860
O2636       O  0.63125687  0.38149371  0.76117149    -0.60060
H2637       H  0.64964230  0.34969294  0.66683596     0.16870
O2638       O  0.70645168  0.35458130  0.66989745    -0.60160
H2639       H  0.71274555  0.33438105  0.67536385     0.43870
H2640       H  0.63422387  0.40241916  0.76652788     0.43820
C2641       C  0.80680504  0.61352616  0.77258314    -0.05240
C2642       C  0.83549616  0.60950225  0.78222710    -0.32670
C2643       C  0.85889834  0.61700956  0.76404457     0.36580
C2644       C  0.85347355  0.62764789  0.73474573    -0.05600
C2645       C  0.82442766  0.63288690  0.72581717    -0.32570
C2646       C  0.80133362  0.62737940  0.74510693     0.36490
H2647       H  0.83987553  0.60005479  0.80385989     0.16860
O2648       O  0.88646716  0.61804588  0.77645329    -0.60060
H2649       H  0.81983687  0.64321405  0.70464041     0.16870
O2650       O  0.77325747  0.63461866  0.73649101    -0.60160
H2651       H  0.76932602  0.65405933  0.74554536     0.43870
H2652       H  0.88818406  0.60166921  0.79095470     0.43820
C2653       C  0.78376636  0.53075765  0.87986538    -0.05240
C2654       C  0.79851396  0.55749906  0.88303953    -0.32670
C2655       C  0.78311649  0.58405473  0.88202250     0.36580
C2656       C  0.75228575  0.58409589  0.87804132    -0.05600
C2657       C  0.73738676  0.55706084  0.87848317    -0.32570
C2658       C  0.75295983  0.53055026  0.88058621     0.36490
H2659       H  0.82231691  0.55794063  0.88290168     0.16860
O2660       O  0.79844855  0.60978190  0.88531776    -0.60060
H2661       H  0.71362200  0.55651122  0.87729243     0.16870
O2662       O  0.73799004  0.50450742  0.88001377    -0.60160
H2663       H  0.73315871  0.50023669  0.90091243     0.43870
H2664       H  0.80733449  0.61373749  0.86576911     0.43820
C2665       C  0.62802420  0.02710844  0.46215301    -0.05240
C2666       C  0.65741419  0.02300365  0.45359694    -0.32670
C2667       C  0.68096575  0.02991522  0.47260078     0.36580
C2668       C  0.67543503  0.04031164  0.50138740    -0.05600
C2669       C  0.64600507  0.04475515  0.50970740    -0.32570
C2670       C  0.62251358  0.03848269  0.49039099     0.36490
H2671       H  0.66216159  0.01492211  0.43170266     0.16860
O2672       O  0.70912232  0.02414725  0.46364862    -0.60060
H2673       H  0.64117242  0.05206153  0.53189439     0.16870
O2674       O  0.59413598  0.04274158  0.49950558    -0.60160
H2675       H  0.59318676  0.06317671  0.50705478     0.43870
H2676       H  0.71283819  0.03810564  0.44718890     0.43820
C2677       C  0.76740774  0.11401385  0.46099710    -0.05240
C2678       C  0.74061770  0.12427318  0.47304649    -0.32670
C2679       C  0.72367843  0.10626082  0.49237170     0.36580
C2680       C  0.73212213  0.07676800  0.49838723    -0.05600
C2681       C  0.75686553  0.06590315  0.48403183    -0.32570
C2682       C  0.77576642  0.08443996  0.46866473     0.36490
H2683       H  0.73321503  0.14651353  0.46843999     0.16860
O2684       O  0.69976753  0.11811895  0.50623606    -0.60060
H2685       H  0.76399158  0.04350005  0.48851871     0.16870
O2686       O  0.80344528  0.07344971  0.46355644    -0.60160
H2687       H  0.81694612  0.08550184  0.47565083     0.43870
H2688       H  0.68258987  0.11155932  0.49449559     0.43820
C2689       C  0.66614967  0.88860982  0.25930075    -0.05240
C2690       C  0.68120794  0.86402852  0.27032125    -0.32670
C2691       C  0.66747914  0.84469644  0.28983282     0.36580
C2692       C  0.63776320  0.84953908  0.29777441    -0.05600
C2693       C  0.62531907  0.87732203  0.29084974    -0.32570
C2694       C  0.63858784  0.89590195  0.27063906     0.36490
H2695       H  0.70393649  0.86021470  0.26436541     0.16860
O2696       O  0.68265937  0.82026663  0.29928810    -0.60060
H2697       H  0.60395569  0.88385711  0.29882204     0.16870
O2698       O  0.62485475  0.92179851  0.26266339    -0.60160
H2699       H  0.63005532  0.93602144  0.27832847     0.43870
H2700       H  0.69842631  0.82770984  0.31239193     0.43820
C2701       C  0.66112854  0.00607261  0.35064091    -0.05240
C2702       C  0.66916954  0.02830891  0.37051052    -0.32670
C2703       C  0.64908906  0.04997029  0.37871212     0.36580
C2704       C  0.61944464  0.04773077  0.36944110    -0.05600
C2705       C  0.61435291  0.03117091  0.34361206    -0.32570
C2706       C  0.63419604  0.00914499  0.33529325     0.36490
H2707       H  0.69095580  0.02876629  0.38024732     0.16860
O2708       O  0.65810803  0.07134252  0.39792356    -0.60060
H2709       H  0.59328968  0.03198614  0.33245962     0.16870
O2710       O  0.62716605  0.99151800  0.31172615    -0.60160
H2711       H  0.62371202  0.97159792  0.31993656     0.43870
H2712       H  0.66379592  0.08820016  0.38523789     0.43820
C2713       C  0.73093823  0.94761758  0.14773188    -0.05240
C2714       C  0.72127208  0.91962129  0.15586307    -0.32670
C2715       C  0.74081932  0.89641982  0.16007244     0.36580
C2716       C  0.77152154  0.90091410  0.15685622    -0.05600
C2717       C  0.78120566  0.92955293  0.14983298    -0.32570
C2718       C  0.76117277  0.95246833  0.14401314     0.36490
H2719       H  0.69805234  0.91557640  0.15902168     0.16860
O2720       O  0.72911576  0.86936371  0.16645863    -0.60060
H2721       H  0.80438354  0.93396413  0.14715712     0.16870
O2722       O  0.77122097  0.97926006  0.13429383    -0.60160
H2723       H  0.78725004  0.98485671  0.14796196     0.43870
H2724       H  0.72243147  0.86139023  0.14722653     0.43820
C2725       C  0.79769938  0.07060047  0.35901925    -0.05240
C2726       C  0.79593003  0.09937895  0.34779017    -0.32670
C2727       C  0.81734798  0.11988541  0.35425364     0.36580
C2728       C  0.83611445  0.11328445  0.37813187    -0.05600
C2729       C  0.84338984  0.08335445  0.38300121    -0.32570
C2730       C  0.82325346  0.06168209  0.37427447     0.36490
H2731       H  0.77693557  0.10670513  0.33538327     0.16860
O2732       O  0.81302871  0.14856495  0.34520594    -0.60060
H2733       H  0.86024009  0.07752789  0.39898600     0.16870
O2734       O  0.82771505  0.03279486  0.38222021    -0.60160
H2735       H  0.81982087  0.03105134  0.40250835     0.43870
H2736       H  0.80863973  0.14793027  0.32375186     0.43820
C2737       C  0.80367860  0.12157004  0.24859303    -0.05240
C2738       C  0.82643369  0.10688924  0.26359301    -0.32670
C2739       C  0.85525619  0.11007226  0.25420037     0.36580
C2740       C  0.86136463  0.12904932  0.23035951    -0.05600
C2741       C  0.83817338  0.14076602  0.21346093    -0.32570
C2742       C  0.80942568  0.13729050  0.22257260     0.36490
H2743       H  0.82190057  0.09321756  0.28271270     0.16860
O2744       O  0.87751130  0.09767366  0.27067006    -0.60060
H2745       H  0.84224394  0.15474845  0.19467908     0.16870
O2746       O  0.78713018  0.15026277  0.20655623    -0.60160
H2747       H  0.78377797  0.16963264  0.21598878     0.43870
H2748       H  0.88010328  0.07762433  0.26250121     0.43820
C2749       C  0.81650709  0.04451364  0.15833862    -0.05240
C2750       C  0.83461182  0.03561634  0.18203674    -0.32670
C2751       C  0.85452834  0.01210587  0.17872353     0.36580
C2752       C  0.85787174  0.99852644  0.15086261    -0.05600
C2753       C  0.84128325  0.00994153  0.12695009    -0.32570
C2754       C  0.82138154  0.03265554  0.13059951     0.36490
H2755       H  0.83111895  0.04465797  0.20383436     0.16860
O2756       O  0.86934195  0.00172663  0.20311561    -0.60060
H2757       H  0.84290200  0.00105870  0.10503814     0.16870
O2758       O  0.80460835  0.04147083  0.10716448    -0.60160
H2759       H  0.80580151  0.06327663  0.10749463     0.43870
H2760       H  0.85719190  0.98536628  0.21079148     0.43820
C2761       C  0.89687421  0.20141076  0.28950003    -0.05240
C2762       C  0.90584520  0.23081215  0.29160310    -0.32670
C2763       C  0.88632534  0.25246876  0.30242030     0.36580
C2764       C  0.85635008  0.24564851  0.30713498    -0.05600
C2765       C  0.84894598  0.21576597  0.30895082    -0.32570
C2766       C  0.86966878  0.19378532  0.30251961     0.36490
H2767       H  0.92695875  0.23736934  0.28296714     0.16860
O2768       O  0.89604831  0.28072876  0.30584165    -0.60060
H2769       H  0.82660280  0.20914125  0.31305481     0.16870
O2770       O  0.86161341  0.16472393  0.30449125    -0.60160
H2771       H  0.84523417  0.16223236  0.29023083     0.43870
H2772       H  0.89892600  0.28310431  0.32740099     0.43820
C2773       C  0.80195330  0.20598107  0.39946403    -0.05240
C2774       C  0.78214015  0.20623178  0.37550271    -0.32670
C2775       C  0.78495199  0.22651803  0.35190587     0.36580
C2776       C  0.80764736  0.24773074  0.35208190    -0.05600
C2777       C  0.82681709  0.24820561  0.37644765    -0.32570
C2778       C  0.82434891  0.22748012  0.39963716     0.36490
H2779       H  0.76605298  0.18881926  0.37366959     0.16860
O2780       O  0.76727141  0.22381669  0.32735400    -0.60060
H2781       H  0.84423732  0.26433629  0.37718171     0.16870
O2782       O  0.84507208  0.22725893  0.42168776    -0.60160
H2783       H  0.86272085  0.21789102  0.41302541     0.43870
H2784       H  0.74683605  0.22240439  0.33461020     0.43820
C2785       C  0.78930114  0.38426663  0.21848545    -0.05240
C2786       C  0.80243313  0.35841188  0.20739824    -0.32670
C2787       C  0.80995212  0.33454760  0.22602669     0.36580
C2788       C  0.81079956  0.33822947  0.25702784    -0.05600
C2789       C  0.80580173  0.36739635  0.26731747    -0.32570
C2790       C  0.79297670  0.38937966  0.24885529     0.36490
H2791       H  0.80087431  0.35409218  0.18415135     0.16860
O2792       O  0.81110776  0.30715580  0.21365900    -0.60060
H2793       H  0.80752286  0.37181209  0.29073055     0.16870
O2794       O  0.78188405  0.41456269  0.26117449    -0.60160
H2795       H  0.76129640  0.40989319  0.26625022     0.43870
H2796       H  0.82768123  0.30768982  0.19956260     0.43820
C2797       C  0.84757234  0.27849865  0.25296425    -0.05240
C2798       C  0.83580212  0.25481097  0.23717289    -0.32670
C2799       C  0.85134846  0.24087898  0.21430367     0.36580
C2800       C  0.88145203  0.24764140  0.20895518    -0.05600
C2801       C  0.89245688  0.27288946  0.22359047    -0.32570
C2802       C  0.87532154  0.28896887  0.24414980     0.36490
H2803       H  0.81375222  0.24749369  0.24216833     0.16860
O2804       O  0.83588296  0.22249682  0.19606382    -0.60060
H2805       H  0.91475961  0.27998088  0.21984887     0.16870
O2806       O  0.88672876  0.31378871  0.25677906    -0.60160
H2807       H  0.87923434  0.33035502  0.24448082     0.43870
H2808       H  0.82785996  0.20677415  0.20892330     0.43820
C2809       C  0.73687377  0.10710075  0.80043555    -0.05240
C2810       C  0.74887625  0.13307636  0.81220917    -0.32670
C2811       C  0.74326361  0.16085106  0.79905417     0.36580
C2812       C  0.72514397  0.16316809  0.77376270    -0.05600
C2813       C  0.71283861  0.13740253  0.76230872    -0.32570
C2814       C  0.71903551  0.10969264  0.77488888     0.36490
H2815       H  0.76160410  0.13207135  0.83245215     0.16860
O2816       O  0.75533387  0.18574567  0.81106348    -0.60060
H2817       H  0.69964886  0.13859127  0.74233990     0.16870
O2818       O  0.70712109  0.08502915  0.76236086    -0.60160
H2819       H  0.68553551  0.08778495  0.76339525     0.43870
H2820       H  0.77685432  0.18244200  0.81142792     0.43820
C2821       C  0.63360965  0.23165219  0.81459156    -0.05240
C2822       C  0.66245975  0.24156290  0.81996281    -0.32670
C2823       C  0.68620976  0.23281661  0.80239984     0.36580
C2824       C  0.68185279  0.21409899  0.77817632    -0.05600
C2825       C  0.65321588  0.20344673  0.77294796    -0.32570
C2826       C  0.62926978  0.21223291  0.79077787     0.36490
H2827       H  0.66689218  0.25569811  0.83853656     0.16860
O2828       O  0.71355901  0.24401794  0.80813713    -0.60060
H2829       H  0.64916673  0.18945568  0.75408825     0.16870
O2830       O  0.60187774  0.20122907  0.78509470    -0.60160
H2831       H  0.59244318  0.21579782  0.77164050     0.43870
H2832       H  0.72091136  0.23288711  0.82558420     0.43820
C2833       C  0.64413185  0.28908827  0.95484881    -0.05240
C2834       C  0.64328299  0.29866251  0.92565864    -0.32670
C2835       C  0.63105731  0.28031224  0.90433393     0.36580
C2836       C  0.61696059  0.25392518  0.91312510    -0.05600
C2837       C  0.61130070  0.24919137  0.94307850    -0.32570
C2838       C  0.62362076  0.26788529  0.96417909     0.36490
H2839       H  0.65705740  0.31678709  0.91865833     0.16860
O2840       O  0.63239476  0.28848531  0.87511771    -0.60060
H2841       H  0.59823379  0.23055749  0.95006248     0.16870
O2842       O  0.62224543  0.26025909  0.99352994    -0.60160
H2843       H  0.60112115  0.25793137  0.99800874     0.43870
H2844       H  0.65339180  0.29212441  0.87089150     0.43820
C2845       C  0.73180823  0.35143612  0.02515668    -0.05240
C2846       C  0.72181540  0.34969052  0.05439596    -0.32670
C2847       C  0.69200467  0.35416860  0.06069590     0.36580
C2848       C  0.67190597  0.35999606  0.03755339    -0.05600
C2849       C  0.68231267  0.36299270  0.00867163    -0.32570
C2850       C  0.71201030  0.35965300  0.00254237     0.36490
H2851       H  0.73664024  0.34299117  0.07203424     0.16860
O2852       O  0.68262133  0.35244405  0.08935969    -0.60060
H2853       H  0.66739940  0.36879686  0.99078612     0.16870
O2854       O  0.72123388  0.36230271  0.97385971    -0.60160
H2855       H  0.72631427  0.38336987  0.97138552     0.43870
H2856       H  0.67804423  0.33136835  0.09267731     0.43820
C2857       C  0.69522713  0.14881235  0.91403961    -0.05240
C2858       C  0.66920813  0.13365494  0.90784041    -0.32670
C2859       C  0.66997008  0.10891083  0.88955536     0.36580
C2860       C  0.69715555  0.09884060  0.87895677    -0.05600
C2861       C  0.72262188  0.11539958  0.88426433    -0.32570
C2862       C  0.72172094  0.14030600  0.90130876     0.36490
H2863       H  0.64880679  0.14013707  0.91820444     0.16860
O2864       O  0.64453178  0.09423207  0.88340846    -0.60060
H2865       H  0.74373673  0.10851449  0.87595048     0.16870
O2866       O  0.74729684  0.15514706  0.90719654    -0.60160
H2867       H  0.75748581  0.14340570  0.92274036     0.43870
H2868       H  0.63666592  0.10368136  0.86519989     0.43820
C2869       C  0.77895968  0.09949398  0.02450809    -0.05240
C2870       C  0.79679418  0.11237173  0.00309536    -0.32670
C2871       C  0.82741783  0.11253593  0.00655377     0.36580
C2872       C  0.84071562  0.09752675  0.03054421    -0.05600
C2873       C  0.82273010  0.08127776  0.04966001    -0.32570
C2874       C  0.79199682  0.08248756  0.04675558     0.36490
H2875       H  0.78672893  0.12353055  0.98456393     0.16860
O2876       O  0.84425043  0.12626197  0.98564145    -0.60060
H2877       H  0.83290255  0.06725109  0.06617602     0.16870
O2878       O  0.77423674  0.06793845  0.06617196    -0.60160
H2879       H  0.76995511  0.04880185  0.05668636     0.43870
H2880       H  0.84740065  0.14643821  0.99324283     0.43820
C2881       C  0.78861496  0.30468885  0.13539745    -0.05240
C2882       C  0.79239945  0.33433367  0.12822790    -0.32670
C2883       C  0.77116682  0.35513007  0.13520579     0.36580
C2884       C  0.74660674  0.34703460  0.15252861    -0.05600
C2885       C  0.74391765  0.31750178  0.16156828    -0.32570
C2886       C  0.76466300  0.29636926  0.15306296     0.36490
H2887       H  0.81055404  0.34096234  0.11432435     0.16860
O2888       O  0.77619081  0.38377295  0.12705394    -0.60060
H2889       H  0.72600318  0.31102649  0.17579938     0.16870
O2890       O  0.75993624  0.26733552  0.15993575    -0.60160
H2891       H  0.77148880  0.26367944  0.17822783     0.43870
H2892       H  0.77606112  0.38388517  0.10515256     0.43820
C2893       C  0.90180846  0.16139382  0.14520175    -0.05240
C2894       C  0.90389710  0.17537900  0.11757067    -0.32670
C2895       C  0.88128422  0.17305401  0.09729555     0.36580
C2896       C  0.85694470  0.15570881  0.10443198    -0.05600
C2897       C  0.85841739  0.13600194  0.12826573    -0.32570
C2898       C  0.88156459  0.13841200  0.14852764     0.36490
H2899       H  0.92019933  0.19206254  0.11363117     0.16860
O2900       O  0.88031566  0.19241732  0.07389089    -0.60060
H2901       H  0.84032073  0.12132530  0.13294665     0.16870
O2902       O  0.88339716  0.11937720  0.17189400    -0.60160
H2903       H  0.89546781  0.10264718  0.16481297     0.43870
H2904       H  0.88504368  0.18056606  0.05629406     0.43820
C2905       C  0.71862226  0.49115958  0.09568378    -0.05240
C2906       C  0.71827482  0.49738643  0.12619548    -0.32670
C2907       C  0.72585539  0.47575716  0.14754270     0.36580
C2908       C  0.73417400  0.44721683  0.13872395    -0.05600
C2909       C  0.73435767  0.44120862  0.10813103    -0.32570
C2910       C  0.72703094  0.46269860  0.08688915     0.36490
H2911       H  0.71253821  0.51935256  0.13344851     0.16860
O2912       O  0.72444918  0.48260891  0.17693261    -0.60060
H2913       H  0.73997011  0.41948765  0.10032748     0.16870
O2914       O  0.72861871  0.45580477  0.05745828    -0.60160
H2915       H  0.74945609  0.45077316  0.05368351     0.43870
H2916       H  0.70410752  0.47781778  0.18288697     0.43820
C2917       C  0.67077599  0.49239875  0.05085906    -0.05240
C2918       C  0.67180098  0.47302591  0.02691259    -0.32670
C2919       C  0.65085255  0.45093710  0.02337758     0.36580
C2920       C  0.62877883  0.44670262  0.04467736    -0.05600
C2921       C  0.62756602  0.46609120  0.06877296    -0.32570
C2922       C  0.64812754  0.48910105  0.07170629     0.36490
H2923       H  0.68923352  0.47488732  0.01086057     0.16860
O2924       O  0.65366193  0.43143111  0.00050316    -0.60060
H2925       H  0.61174817  0.46238920  0.08613801     0.16870
O2926       O  0.64605191  0.50812307  0.09500483    -0.60160
H2927       H  0.65372997  0.49699675  0.11231969     0.43870
H2928       H  0.67354683  0.42266851  0.00252580     0.43820
C2929       C  0.67146610  0.53493949  0.00326633    -0.05240
C2930       C  0.64085158  0.53232024  0.00799581    -0.32670
C2931       C  0.62269361  0.51676554  0.98799208     0.36580
C2932       C  0.63473983  0.50472570  0.96210606    -0.05600
C2933       C  0.66396256  0.51223003  0.95517115    -0.32570
C2934       C  0.68238621  0.52620347  0.97558742     0.36490
H2935       H  0.63175220  0.53913027  0.02892802     0.16860
O2936       O  0.59435485  0.51051077  0.99572748    -0.60060
H2937       H  0.67378563  0.50418996  0.93509245     0.16870
O2938       O  0.71180402  0.52789067  0.96951543    -0.60160
H2939       H  0.72042565  0.50912805  0.97689055     0.43870
H2940       H  0.58255529  0.52739630  0.98821044     0.43820
C2941       C  0.71648475  0.58299144  0.00336704    -0.05240
C2942       C  0.74266434  0.58570168  0.98717091    -0.32670
C2943       C  0.74609292  0.60756391  0.96554961     0.36580
C2944       C  0.72200077  0.62528481  0.95661438    -0.05600
C2945       C  0.69515274  0.62127900  0.97134929    -0.32570
C2946       C  0.69274390  0.60168225  0.99549311     0.36490
H2947       H  0.76085992  0.57082069  0.99151703     0.16860
O2948       O  0.77203798  0.60858783  0.95032624    -0.60060
H2949       H  0.67548814  0.63193492  0.96298337     0.16870
O2950       O  0.66668519  0.60013461  0.01038398    -0.60160
H2951       H  0.66846422  0.61464434  0.02655363     0.43870
H2952       H  0.78050434  0.62814048  0.95475428     0.43820
C2953       C  0.85494058  0.99300407  0.96117579    -0.05240
C2954       C  0.84992064  0.02295302  0.95410323    -0.32670
C2955       C  0.87153728  0.04449616  0.95829460     0.36580
C2956       C  0.89684581  0.03782737  0.97534071    -0.05600
C2957       C  0.90419834  0.00785832  0.97846244    -0.32570
C2958       C  0.88449766  0.98568157  0.96900737     0.36490
H2959       H  0.82877442  0.03117960  0.94795103     0.16860
O2960       O  0.86417003  0.07335002  0.95274794    -0.60060
H2961       H  0.92397939  0.00156273  0.99035541     0.16870
O2962       O  0.89332096  0.95681741  0.97075916    -0.60160
H2963       H  0.89739647  0.95100569  0.95012559     0.43870
H2964       H  0.87606307  0.07910318  0.93542416     0.43820
C2965       C  0.79755176  0.99341652  0.92373370    -0.05240
C2966       C  0.80534521  0.99315928  0.89355818    -0.32670
C2967       C  0.79170626  0.01273344  0.87295297     0.36580
C2968       C  0.77134448  0.03415595  0.88266841    -0.05600
C2969       C  0.76786925  0.03717700  0.91351351    -0.32570
C2970       C  0.77887241  0.01611751  0.93344220     0.36490
H2971       H  0.81984122  0.97603307  0.88555379     0.16860
O2972       O  0.79640395  0.00889120  0.84337188    -0.60060
H2973       H  0.75436778  0.05474532  0.92228624     0.16870
O2974       O  0.77185544  0.01827307  0.96278496    -0.60160
H2975       H  0.75157974  0.01065688  0.96434358     0.43870
H2976       H  0.81434579  0.02032519  0.83898008     0.43820
C2977       C  0.80831700  0.90992816  0.02204463    -0.05240
C2978       C  0.81447452  0.87929431  0.02205656    -0.32670
C2979       C  0.81035239  0.86166372  0.04769301     0.36580
C2980       C  0.79883501  0.87419747  0.07359583    -0.05600
C2981       C  0.79183313  0.90460242  0.07273697    -0.32570
C2982       C  0.79771474  0.92247111  0.04821281     0.36490
H2983       H  0.82249616  0.86908676  0.00209966     0.16860
O2984       O  0.81822513  0.83253775  0.04727461    -0.60060
H2985       H  0.78236054  0.91509469  0.09181291     0.16870
O2986       O  0.79206652  0.95222646  0.04958380    -0.60160
H2987       H  0.77116108  0.95446571  0.05512592     0.43870
H2988       H  0.83592921  0.83117628  0.06006020     0.43820
C2989       C  0.88831354  0.97024281  0.06463183    -0.05240
C2990       C  0.87024343  0.99254842  0.05259925    -0.32670
C2991       C  0.84987603  0.98626375  0.02998091     0.36580
C2992       C  0.84993495  0.95845344  0.01629427    -0.05600
C2993       C  0.86895906  0.93663368  0.02737864    -0.32570
C2994       C  0.88644699  0.94186534  0.05228742     0.36490
H2995       H  0.86963860  0.01401718  0.06288848     0.16860
O2996       O  0.82895628  0.00680863  0.02223401    -0.60060
H2997       H  0.86898862  0.91485860  0.01774106     0.16870
O2998       O  0.89949694  0.91838498  0.06608012    -0.60160
H2999       H  0.88382277  0.90904012  0.07793777     0.43870
H3000       H  0.81508530  0.00743828  0.03899897     0.43820
C3001       C  0.76268005  0.66008710  0.23344623    -0.05240
C3002       C  0.77552126  0.63602634  0.21873355    -0.32670
C3003       C  0.79481934  0.61658144  0.23396222     0.36580
C3004       C  0.80119035  0.62107788  0.26427923    -0.05600
C3005       C  0.78947333  0.64653180  0.27761737    -0.32570
C3006       C  0.77166510  0.66619669  0.26244505     0.36490
H3007       H  0.76937396  0.63145999  0.19609240     0.16860
O3008       O  0.80696100  0.59343568  0.21900756    -0.60060
H3009       H  0.79382575  0.65165283  0.30042905     0.16870
O3010       O  0.76110710  0.69045941  0.27701227    -0.60160
H3011       H  0.77657073  0.70559472  0.27506788     0.43870
H3012       H  0.82632337  0.60059737  0.21225124     0.43820
C3013       C  0.76789903  0.70084798  0.18019180    -0.05240
C3014       C  0.76372310  0.70637827  0.14955780    -0.32670
C3015       C  0.78610495  0.71904123  0.13205096     0.36580
C3016       C  0.81422612  0.72355526  0.14420255    -0.05600
C3017       C  0.81976437  0.71180870  0.17259690    -0.32570
C3018       C  0.79688163  0.70348045  0.19127795     0.36490
H3019       H  0.74192936  0.70439873  0.14012650     0.16860
O3020       O  0.77930483  0.72966124  0.10445187    -0.60060
H3021       H  0.84152299  0.71330984  0.18223194     0.16870
O3022       O  0.80295331  0.70173564  0.22087083    -0.60160
H3023       H  0.80518662  0.72233365  0.22761500     0.43870
H3024       H  0.78207607  0.71269726  0.09106032     0.43820
C3025       C  0.73197194  0.75219027  0.18439580    -0.05240
C3026       C  0.75774938  0.76441860  0.19613766    -0.32670
C3027       C  0.77367891  0.78604112  0.18108530     0.36580
C3028       C  0.76342344  0.79787964  0.15388710    -0.05600
C3029       C  0.73687344  0.78658163  0.14236286    -0.32570
C3030       C  0.72137815  0.76373077  0.15722819     0.36490
H3031       H  0.76637239  0.75607702  0.21690793     0.16860
O3032       O  0.79992014  0.79515857  0.19295689    -0.60060
H3033       H  0.72785024  0.79576336  0.12211738     0.16870
O3034       O  0.69604887  0.75285792  0.14507556    -0.60160
H3035       H  0.70241902  0.74075028  0.12811679     0.43870
H3036       H  0.79507467  0.80436780  0.21213816     0.43820
C3037       C  0.67196698  0.74819316  0.21527094    -0.05240
C3038       C  0.64216950  0.74051979  0.21142488    -0.32670
C3039       C  0.61926372  0.75882806  0.22174405     0.36580
C3040       C  0.62566041  0.78757052  0.23163468    -0.05600
C3041       C  0.65481924  0.79746929  0.22834407    -0.32570
C3042       C  0.67799123  0.77758923  0.22315470     0.36490
H3043       H  0.63688910  0.71840020  0.20447486     0.16860
O3044       O  0.59229559  0.74622909  0.22664973    -0.60060
H3045       H  0.66031889  0.81943337  0.23542953     0.16870
O3046       O  0.70606066  0.78645675  0.22932394    -0.60160
H3047       H  0.70946994  0.78108313  0.25032538     0.43870
H3048       H  0.57730932  0.76198357  0.22519417     0.43820
C3049       C  0.72890208  0.94895667  0.64018045    -0.05240
C3050       C  0.70331363  0.96661741  0.64057740    -0.32670
C3051       C  0.69909971  0.98955797  0.61942444     0.36580
C3052       C  0.71775100  0.99161580  0.59453661    -0.05600
C3053       C  0.74193734  0.97248596  0.59375016    -0.32570
C3054       C  0.74995610  0.95560073  0.61838733     0.36490
H3055       H  0.68651884  0.96238221  0.65685438     0.16860
O3056       O  0.67657520  0.00925974  0.62307125    -0.60060
H3057       H  0.75607744  0.97234796  0.57468111     0.16870
O3058       O  0.77672062  0.94165537  0.61848871    -0.60160
H3059       H  0.78740680  0.94960732  0.63580043     0.43870
H3060       H  0.68536402  0.02599571  0.63386497     0.43820
C3061       C  0.67419971  0.70932865  0.26573983    -0.05240
C3062       C  0.69001701  0.72334926  0.28811103    -0.32670
C3063       C  0.67615707  0.73320153  0.31370174     0.36580
C3064       C  0.64497760  0.73519486  0.31494108    -0.05600
C3065       C  0.62898170  0.71992327  0.29314558    -0.32570
C3066       C  0.64362666  0.70551168  0.26968787     0.36490
H3067       H  0.71369920  0.72479056  0.28659054     0.16860
O3068       O  0.69321667  0.73952505  0.33803491    -0.60060
H3069       H  0.60523217  0.71959614  0.29387103     0.16870
O3070       O  0.62773057  0.68888752  0.25023839    -0.60160
H3071       H  0.63001734  0.66831994  0.25737945     0.43870
H3072       H  0.70847603  0.75354331  0.33136527     0.43820
C3073       C  0.72949017  0.60799399  0.30631745    -0.05240
C3074       C  0.73068430  0.60088876  0.27613532    -0.32670
C3075       C  0.71800010  0.61998767  0.25433271     0.36580
C3076       C  0.70781952  0.64881779  0.26184922    -0.05600
C3077       C  0.70101160  0.65213675  0.29203095    -0.32570
C3078       C  0.71077283  0.63187413  0.31372058     0.36490
H3079       H  0.74315725  0.58180507  0.26919170     0.16860
O3080       O  0.71855641  0.61156271  0.22534272    -0.60060
H3081       H  0.68940130  0.67067645  0.30032721     0.16870
O3082       O  0.70372225  0.63690035  0.34272424    -0.60160
H3083       H  0.71161679  0.65659328  0.34770244     0.43870
H3084       H  0.69834289  0.60485532  0.22093741     0.43820
C3085       C  0.63214468  0.95000587  0.52793911    -0.05240
C3086       C  0.65470973  0.95804257  0.50833947    -0.32670
C3087       C  0.67760416  0.97595425  0.51780158     0.36580
C3088       C  0.67462753  0.99306714  0.54338827    -0.05600
C3089       C  0.64928624  0.98907555  0.56069667    -0.32570
C3090       C  0.62909138  0.96644387  0.55406950     0.36490
H3091       H  0.65803761  0.94535081  0.48839992     0.16860
O3092       O  0.70319107  0.97629878  0.50198882    -0.60060
H3093       H  0.64543466  0.00288796  0.57958917     0.16870
O3094       O  0.60772826  0.95939658  0.57402868    -0.60160
H3095       H  0.59003964  0.97037147  0.56727061     0.43870
H3096       H  0.71622490  0.96171997  0.51195075     0.43820
C3097       C  0.73449717  0.64319877  0.44565918    -0.05240
C3098       C  0.76484835  0.64822044  0.44391490    -0.32670
C3099       C  0.78082332  0.64007929  0.41904489     0.36580
C3100       C  0.76643958  0.62587634  0.39586309    -0.05600
C3101       C  0.73669532  0.61781007  0.39927200    -0.32570
C3102       C  0.72052980  0.62721866  0.42348815     0.36490
H3103       H  0.77590861  0.65984398  0.46113677     0.16860
O3104       O  0.81020905  0.64632137  0.41747269    -0.60060
H3105       H  0.72576882  0.60449949  0.38287226     0.16870
O3106       O  0.69105402  0.62136364  0.42494627    -0.60160
H3107       H  0.68140090  0.63696932  0.41287908     0.43870
H3108       H  0.81123147  0.66618335  0.40834028     0.43820
C3109       C  0.79385574  0.63652483  0.55394531    -0.05240
C3110       C  0.82168689  0.63940593  0.56683457    -0.32670
C3111       C  0.84695647  0.63349947  0.55058006     0.36580
C3112       C  0.84461954  0.62552705  0.52046465    -0.05600
C3113       C  0.81663483  0.62162626  0.50808743    -0.32570
C3114       C  0.79155298  0.62539345  0.52492927     0.36490
H3115       H  0.82395701  0.64696048  0.58937701     0.16860
O3116       O  0.87363773  0.63429901  0.56479840    -0.60060
H3117       H  0.81397174  0.61539862  0.48518257     0.16870
O3118       O  0.76486468  0.62012100  0.51188838    -0.60160
H3119       H  0.76095339  0.59898327  0.51566754     0.43870
H3120       H  0.87761522  0.65546258  0.56824225     0.43820
C3121       C  0.82357182  0.87246802  0.57611802    -0.05240
C3122       C  0.82713174  0.87276378  0.60665838    -0.32670
C3123       C  0.80192413  0.87499475  0.62411859     0.36580
C3124       C  0.77392532  0.87804627  0.60993538    -0.05600
C3125       C  0.77381002  0.88859130  0.58061487    -0.32570
C3126       C  0.80029331  0.88983496  0.56513984     0.36490
H3127       H  0.84809829  0.86691737  0.61649373     0.16860
O3128       O  0.80487031  0.87698089  0.65426732    -0.60060
H3129       H  0.75378483  0.89568429  0.56979778     0.16870
O3130       O  0.80027350  0.89917092  0.53631539    -0.60160
H3131       H  0.80211266  0.92087880  0.53733281     0.43870
H3132       H  0.81912372  0.86175661  0.66067458     0.43820
C3133       C  0.81307361  0.76608475  0.63111360    -0.05240
C3134       C  0.83519943  0.74819519  0.61983727    -0.32670
C3135       C  0.86425240  0.75809941  0.61917987     0.36580
C3136       C  0.87166905  0.78630409  0.63077735    -0.05600
C3137       C  0.84894762  0.80417353  0.64106602    -0.32570
C3138       C  0.82054347  0.79353794  0.64306692     0.36490
H3139       H  0.82997210  0.72675395  0.61092961     0.16860
O3140       O  0.88503472  0.73932890  0.60821142    -0.60060
H3141       H  0.85389155  0.82526349  0.65085022     0.16870
O3142       O  0.80033267  0.80946271  0.65844596    -0.60160
H3143       H  0.80644097  0.80743770  0.67938194     0.43870
H3144       H  0.88429568  0.74228197  0.58653257     0.43820
C3145       C  0.71738263  0.76972278  0.40001207    -0.05240
C3146       C  0.69191360  0.76076679  0.41441674    -0.32670
C3147       C  0.66631911  0.77734425  0.41214340     0.36580
C3148       C  0.66456482  0.80017098  0.39094628    -0.05600
C3149       C  0.69088974  0.81199348  0.38016420    -0.32570
C3150       C  0.71740505  0.79675951  0.38461091     0.36490
H3151       H  0.69171448  0.74063224  0.42730512     0.16860
O3152       O  0.64178338  0.76737819  0.42630893    -0.60060
H3153       H  0.69020276  0.83036151  0.36481959     0.16870
O3154       O  0.74263043  0.80723605  0.37205385    -0.60160
H3155       H  0.74271650  0.79919435  0.35174980     0.43870
H3156       H  0.63918183  0.78079711  0.44329281     0.43820
C3157       C  0.73698992  0.86490080  0.46970055    -0.05240
C3158       C  0.73458348  0.87429078  0.49912849    -0.32670
C3159       C  0.70756123  0.87457432  0.51336186     0.36580
C3160       C  0.68137594  0.86979583  0.49716577    -0.05600
C3161       C  0.68354865  0.86422390  0.46668493    -0.32570
C3162       C  0.71101131  0.86158361  0.45305539     0.36490
H3163       H  0.75399581  0.87712945  0.51263437     0.16860
O3164       O  0.70750403  0.87794469  0.54350534    -0.60060
H3165       H  0.66394228  0.86197984  0.45324826     0.16870
O3166       O  0.71220709  0.85473140  0.42371135    -0.60160
H3167       H  0.71267638  0.87394765  0.41323501     0.43870
H3168       H  0.69777962  0.86025130  0.55172343     0.43820
C3169       C  0.09120428  0.70496032  0.49589675    -0.05240
C3170       C  0.12192435  0.70077072  0.49852752    -0.32670
C3171       C  0.14140345  0.71461594  0.47853427     0.36580
C3172       C  0.13006101  0.73276260  0.45582017    -0.05600
C3173       C  0.09941775  0.73390927  0.45214766    -0.32570
C3174       C  0.08018068  0.72027116  0.47140189     0.36490
H3175       H  0.13081136  0.68914248  0.51754293     0.16860
O3176       O  0.17109178  0.71282302  0.48331762    -0.60060
H3177       H  0.08963627  0.74786545  0.43597495     0.16870
O3178       O  0.05069054  0.72655467  0.46911459    -0.60160
H3179       H  0.04411516  0.71784398  0.45022558     0.43870
H3180       H  0.17761940  0.69537266  0.47200486     0.43820
C3181       C  0.04615259  0.65800971  0.49560511    -0.05240
C3182       C  0.02521045  0.66124902  0.47280508    -0.32670
C3183       C  0.01935719  0.63853337  0.45256513     0.36580
C3184       C  0.03639868  0.61258168  0.45277885    -0.05600
C3185       C  0.05825498  0.60964701  0.47490507    -0.32570
C3186       C  0.06258212  0.63161128  0.49655170     0.36490
H3187       H  0.01281889  0.68150395  0.47079802     0.16860
O3188       O  0.99754882  0.64213173  0.43171760    -0.60060
H3189       H  0.07287023  0.59079320  0.47464222     0.16870
O3190       O  0.08370561  0.62751019  0.51788372    -0.60160
H3191       H  0.07341057  0.61803078  0.53461302     0.43870
H3192       H  0.00037105  0.66184174  0.42288087     0.43820
C3193       C  0.99716053  0.66491302  0.53414892    -0.05240
C3194       C  0.97658334  0.67650457  0.51405414    -0.32670
C3195       C  0.95494344  0.65890655  0.50143866     0.36580
C3196       C  0.95178064  0.62920542  0.51026247    -0.05600
C3197       C  0.97214677  0.61736862  0.53067840    -0.32570
C3198       C  0.99496566  0.63493725  0.54227071     0.36490
H3199       H  0.97913094  0.69866351  0.50565401     0.16860
O3200       O  0.93671148  0.67108861  0.48036916    -0.60060
H3201       H  0.96997564  0.59478640  0.53814852     0.16870
O3202       O  0.01535155  0.62249482  0.56096941    -0.60160
H3203       H  0.00833223  0.62709500  0.58110551     0.43870
H3204       H  0.94603784  0.66642475  0.46122590     0.43820
C3205       C  0.99721406  0.70938684  0.58167128    -0.05240
C3206       C  0.99726841  0.70123178  0.61181749    -0.32670
C3207       C  0.97698509  0.71384007  0.63185299     0.36580
C3208       C  0.95486964  0.73338714  0.62149669    -0.05600
C3209       C  0.95246367  0.73699784  0.59045178    -0.32570
C3210       C  0.97399642  0.72693043  0.57111108     0.36490
H3211       H  0.01485056  0.68740770  0.62035379     0.16860
O3212       O  0.98025622  0.70819519  0.66143783    -0.60060
H3213       H  0.93484703  0.74957052  0.58048135     0.16870
O3214       O  0.97422597  0.73758592  0.54265473    -0.60160
H3215       H  0.95447473  0.73362300  0.53427741     0.43870
H3216       H  0.99345672  0.72380948  0.66885319     0.43820
C3217       C  0.99807001  0.57752541  0.72347067    -0.05240
C3218       C  0.97230892  0.56893433  0.73740441    -0.32670
C3219       C  0.95049992  0.58947909  0.74384327     0.36580
C3220       C  0.95370299  0.61946361  0.73560590    -0.05600
C3221       C  0.97968268  0.62808930  0.72153351    -0.32570
C3222       C  0.00181490  0.60731635  0.71546464     0.36490
H3223       H  0.96952861  0.54623775  0.74435039     0.16860
O3224       O  0.92540758  0.57956105  0.75693276    -0.60060
H3225       H  0.98223183  0.65063778  0.71406048     0.16870
O3226       O  0.02710631  0.61629851  0.70195188    -0.60160
H3227       H  0.02411009  0.61199212  0.68071787     0.43870
H3228       H  0.93121441  0.57449719  0.77749777     0.43820
C3229       C  0.99835365  0.52966225  0.67962421    -0.05240
C3230       C  0.00026447  0.54502504  0.65270203    -0.32670
C3231       C  0.97965158  0.54042099  0.62990912     0.36580
C3232       C  0.95692379  0.51971765  0.63343812    -0.05600
C3233       C  0.95513055  0.50430224  0.66035047    -0.32570
C3234       C  0.97557014  0.50907705  0.68331202     0.36490
H3235       H  0.01789320  0.56058485  0.64933219     0.16860
O3236       O  0.98152347  0.55665698  0.60436712    -0.60060
H3237       H  0.93683454  0.48962649  0.66417595     0.16870
O3238       O  0.97240646  0.49476051  0.70991341    -0.60160
H3239       H  0.96947864  0.47368460  0.70527513     0.43870
H3240       H  0.97207972  0.57582551  0.60887018     0.43820
C3241       C  0.04399022  0.48624350  0.68094344    -0.05240
C3242       C  0.05025911  0.49261308  0.65114228    -0.32670
C3243       C  0.04600774  0.47152745  0.62876084     0.36580
C3244       C  0.03443294  0.44359601  0.63554539    -0.05600
C3245       C  0.02819751  0.43728633  0.66536480    -0.32570
C3246       C  0.03307472  0.45810133  0.68793618     0.36490
H3247       H  0.05846189  0.51418384  0.64520519     0.16860
O3248       O  0.05364325  0.47830695  0.60030049    -0.60060
H3249       H  0.02029580  0.41573510  0.67139759     0.16870
O3250       O  0.02802369  0.45061197  0.71691319    -0.60160
H3251       H  0.00818381  0.44183922  0.71762942     0.43870
H3252       H  0.07467923  0.47283060  0.59877385     0.43820
C3253       C  0.08946770  0.48878851  0.72817032    -0.05240
C3254       C  0.11236227  0.48896138  0.70776925    -0.32670
C3255       C  0.13584909  0.46925020  0.71070266     0.36580
C3256       C  0.13741773  0.44960910  0.73490425    -0.05600
C3257       C  0.11453275  0.44973756  0.75557129    -0.32570
C3258       C  0.09034173  0.46871354  0.75197723     0.36490
H3259       H  0.11180769  0.50423913  0.68929796     0.16860
O3260       O  0.15598233  0.46757073  0.68844039    -0.60060
H3261       H  0.11414539  0.43328822  0.77297413     0.16870
O3262       O  0.06659635  0.46595670  0.77027860    -0.60160
H3263       H  0.07194163  0.47630362  0.78864572     0.43870
H3264       H  0.14675230  0.45517993  0.67303925     0.43820
C3265       C  0.84043889  0.73706913  0.79951572    -0.05240
C3266       C  0.87127821  0.74084037  0.80165343    -0.32670
C3267       C  0.89080214  0.72143200  0.78705792     0.36580
C3268       C  0.87949586  0.69700530  0.77198047    -0.05600
C3269       C  0.84942209  0.69059438  0.77610140    -0.32570
C3270       C  0.82988342  0.71067367  0.78809832     0.36490
H3271       H  0.87991024  0.76082121  0.81122938     0.16860
O3272       O  0.91995632  0.72835830  0.78497608    -0.60060
H3273       H  0.83963200  0.67166293  0.76642337     0.16870
O3274       O  0.80031959  0.70635400  0.78397440    -0.60160
H3275       H  0.79538400  0.68881903  0.79608442     0.43870
H3276       H  0.92930570  0.71920405  0.80261698     0.43820
C3277       C  0.78564744  0.73711162  0.83763503    -0.05240
C3278       C  0.75671535  0.72769382  0.83188927    -0.32670
C3279       C  0.74361191  0.70511727  0.84841662     0.36580
C3280       C  0.75912197  0.69099207  0.87151737    -0.05600
C3281       C  0.78850769  0.69928315  0.87664032    -0.32570
C3282       C  0.80178372  0.72211292  0.85994517     0.36490
H3283       H  0.74390968  0.73843364  0.81464756     0.16860
O3284       O  0.71534320  0.69701620  0.84187020    -0.60060
H3285       H  0.80136273  0.68768951  0.89326724     0.16870
O3286       O  0.83039460  0.72962439  0.86560436    -0.60160
H3287       H  0.83031189  0.73905272  0.88527535     0.43870
H3288       H  0.71707744  0.68287876  0.82536113     0.43820
C3289       C  0.75586380  0.79277217  0.84764250    -0.05240
C3290       C  0.72648093  0.79897698  0.84035577    -0.32670
C3291       C  0.70362554  0.79244179  0.85984513     0.36580
C3292       C  0.70908165  0.77464873  0.88513634    -0.05600
C3293       C  0.73839193  0.77187892  0.89466031    -0.32570
C3294       C  0.76151195  0.78277619  0.87698446     0.36490
H3295       H  0.72031842  0.80669534  0.81875560     0.16860
O3296       O  0.67559319  0.80213066  0.85335418    -0.60060
H3297       H  0.74354667  0.75997798  0.91483863     0.16870
O3298       O  0.78976939  0.78060264  0.88732179    -0.60160
H3299       H  0.79480175  0.80069535  0.89403633     0.43870
H3300       H  0.67146214  0.79659756  0.83259644     0.43820
C3301       C  0.76155470  0.83912808  0.79903638    -0.05240
C3302       C  0.73869275  0.84009708  0.77807359    -0.32670
C3303       C  0.72231916  0.86565833  0.77292778     0.36580
C3304       C  0.72487436  0.88966009  0.79230846    -0.05600
C3305       C  0.74759346  0.88888327  0.81366239    -0.32570
C3306       C  0.76635197  0.86418423  0.81650156     0.36490
H3307       H  0.73295293  0.82046693  0.76602802     0.16860
O3308       O  0.70019405  0.86497652  0.75222181    -0.60060
H3309       H  0.74937637  0.90630753  0.82968950     0.16870
O3310       O  0.78842690  0.86425722  0.83721348    -0.60160
H3311       H  0.77938658  0.85652424  0.85552437     0.43870
H3312       H  0.70674899  0.87813857  0.73605786     0.43820
C3313       C  0.79411957  0.82398045  0.74752796    -0.05240
C3314       C  0.77328187  0.81101205  0.72886436    -0.32670
C3315       C  0.75603759  0.82804387  0.70940365     0.36580
C3316       C  0.76130270  0.85861791  0.70534567    -0.05600
C3317       C  0.78366209  0.87139138  0.72268508    -0.32570
C3318       C  0.79961684  0.85446832  0.74387192     0.36490
H3319       H  0.76750713  0.78811618  0.73218056     0.16860
O3320       O  0.73326701  0.81450248  0.69497316    -0.60060
H3321       H  0.78883336  0.89447554  0.71982592     0.16870
O3322       O  0.81925512  0.86826593  0.76211117    -0.60160
H3323       H  0.83877555  0.86439960  0.75333713     0.43870
H3324       H  0.71565039  0.81872979  0.70700606     0.43820
C3325       C  0.84427019  0.77963847  0.75300299    -0.05240
C3326       C  0.87294770  0.79036821  0.75713114    -0.32670
C3327       C  0.89641382  0.78172465  0.73879486     0.36580
C3328       C  0.89129321  0.76354898  0.71386477    -0.05600
C3329       C  0.86260503  0.75257249  0.70996147    -0.32570
C3330       C  0.83951026  0.76000429  0.72938124     0.36490
H3331       H  0.87756332  0.80424066  0.77595842     0.16860
O3332       O  0.92432540  0.79044641  0.74664105    -0.60060
H3333       H  0.85760891  0.73955552  0.69060851     0.16870
O3334       O  0.81234215  0.74774985  0.72524255    -0.60160
H3335       H  0.80475349  0.75631622  0.70649394     0.43870
H3336       H  0.93625057  0.79244711  0.72857221     0.43820
C3337       C  0.52398223  0.78038879  0.43397887    -0.05240
C3338       C  0.51952570  0.79187566  0.40538356    -0.32670
C3339       C  0.54055220  0.78772903  0.38317982     0.36580
C3340       C  0.56596621  0.77085920  0.38886734    -0.05600
C3341       C  0.57021782  0.75911368  0.41723469    -0.32570
C3342       C  0.55003388  0.76435803  0.43996077     0.36490
H3343       H  0.49955394  0.80399265  0.40027628     0.16860
O3344       O  0.53662508  0.80113390  0.35628879    -0.60060
H3345       H  0.59021027  0.74701968  0.42216568     0.16870
O3346       O  0.55531685  0.75331198  0.46784919    -0.60160
H3347       H  0.56843315  0.73589921  0.46632862     0.43870
H3348       H  0.54501336  0.82107261  0.35874179     0.43820
C3349       C  0.52396492  0.82084849  0.48442336    -0.05240
C3350       C  0.52451582  0.85005588  0.47374304    -0.32670
C3351       C  0.54808479  0.86901695  0.48058369     0.36580
C3352       C  0.57167877  0.85884531  0.49830664    -0.05600
C3353       C  0.57077726  0.82979074  0.50911647    -0.32570
C3354       C  0.54720424  0.81099395  0.50274495     0.36490
H3355       H  0.50652995  0.85817864  0.46016157     0.16860
O3356       O  0.54805492  0.89711599  0.46935656    -0.60060
H3357       H  0.58859107  0.82160119  0.52292228     0.16870
O3358       O  0.54667219  0.78292822  0.51447442    -0.60160
H3359       H  0.55758093  0.78298739  0.53348532     0.43870
H3360       H  0.55876383  0.89577110  0.45041958     0.43820
C3361       C  0.47302496  0.82683517  0.52073562    -0.05240
C3362       C  0.45916599  0.85415372  0.51499611    -0.32670
C3363       C  0.46323032  0.87856590  0.53394222     0.36580
C3364       C  0.48358951  0.87711817  0.55758634    -0.05600
C3365       C  0.49905446  0.85046340  0.56164781    -0.32570
C3366       C  0.49249484  0.82507226  0.54498942     0.36490
H3367       H  0.44487023  0.85647565  0.49593223     0.16860
O3368       O  0.44665617  0.90353412  0.52961512    -0.60060
H3369       H  0.51410406  0.84852852  0.58014061     0.16870
O3370       O  0.50430791  0.79809713  0.55266649    -0.60160
H3371       H  0.52136584  0.80131356  0.56592864     0.43870
H3372       H  0.42812246  0.89995383  0.54039494     0.43820
C3373       C  0.42546127  0.77901760  0.51733835    -0.05240
C3374       C  0.42712901  0.75681273  0.53893817    -0.32670
C3375       C  0.40213708  0.74725786  0.55430895     0.36580
C3376       C  0.37589763  0.76386134  0.55339500    -0.05600
C3377       C  0.37452162  0.78759631  0.53310535    -0.32570
C3378       C  0.39846989  0.79426193  0.51425026     0.36490
H3379       H  0.44780289  0.74563657  0.54270650     0.16860
O3380       O  0.40449899  0.72317611  0.57262108    -0.60060
H3381       H  0.35513753  0.80145094  0.53242037     0.16870
O3382       O  0.39539721  0.81585729  0.49316732    -0.60160
H3383       H  0.39508884  0.83465194  0.50419614     0.43870
H3384       H  0.39543160  0.70679410  0.56151705     0.43820
C3385       C  0.47493845  0.49923293  0.84681536    -0.05240
C3386       C  0.46349643  0.49909700  0.87553472    -0.32670
C3387       C  0.47316467  0.51959702  0.89666270     0.36580
C3388       C  0.49513463  0.54022118  0.88978532    -0.05600
C3389       C  0.50684115  0.54004455  0.86119997    -0.32570
C3390       C  0.49708129  0.51982429  0.83986432     0.36490
H3391       H  0.44705639  0.48303437  0.88157238     0.16860
O3392       O  0.45999408  0.52036901  0.92369528    -0.60060
H3393       H  0.52234232  0.55691877  0.85482050     0.16870
O3394       O  0.50819463  0.52098609  0.81169224    -0.60160
H3395       H  0.52978444  0.52293149  0.81364405     0.43870
H3396       H  0.44513591  0.53636881  0.92209991     0.43820
C3397       C  0.42258856  0.50072202  0.80481435    -0.05240
C3398       C  0.43194391  0.52977140  0.80011884    -0.32670
C3399       C  0.41232496  0.55185462  0.79036351     0.36580
C3400       C  0.38291943  0.54478383  0.78293016    -0.05600
C3401       C  0.37255643  0.51694079  0.79156104    -0.32570
C3402       C  0.39195099  0.49546935  0.80351727     0.36490
H3403       H  0.45490807  0.53515752  0.80147890     0.16860
O3404       O  0.42233287  0.58018309  0.78677845    -0.60060
H3405       H  0.34994553  0.51104937  0.78713818     0.16870
O3406       O  0.38113991  0.46841091  0.81124043    -0.60160
H3407       H  0.37828228  0.46933298  0.83289014     0.43870
H3408       H  0.43903252  0.57907098  0.77286260     0.43820
C3409       C  0.51428953  0.45112560  0.84718943    -0.05240
C3410       C  0.54075156  0.46514524  0.84002267    -0.32670
C3411       C  0.56247100  0.47010021  0.86149313     0.36580
C3412       C  0.55850270  0.46047342  0.89084142    -0.05600
C3413       C  0.53222901  0.44609333  0.89808003    -0.32570
C3414       C  0.51015556  0.44168001  0.87660592     0.36490
H3415       H  0.54434702  0.47303231  0.81779630     0.16860
O3416       O  0.58819990  0.48329608  0.85327688    -0.60060
H3417       H  0.52916694  0.43755331  0.92022695     0.16870
O3418       O  0.48439575  0.42847110  0.88464904    -0.60160
H3419       H  0.48762177  0.40715678  0.88127025     0.43870
H3420       H  0.58543724  0.50446162  0.85781492     0.43820
C3421       C  0.51459366  0.41094660  0.79677819    -0.05240
C3422       C  0.53666467  0.42353478  0.77981695    -0.32670
C3423       C  0.55955111  0.40650145  0.76857378     0.36580
C3424       C  0.55910960  0.37523625  0.77148185    -0.05600
C3425       C  0.53883569  0.36310021  0.79151567    -0.32570
C3426       C  0.51729464  0.38101918  0.80496401     0.36490
H3427       H  0.53573393  0.44681657  0.77447426     0.16860
O3428       O  0.58265454  0.42087857  0.75560444    -0.60060
H3429       H  0.53861262  0.33958633  0.79561274     0.16870
O3430       O  0.49752068  0.36860529  0.82395021    -0.60160
H3431       H  0.50734448  0.36882580  0.84353167     0.43870
H3432       H  0.57416058  0.43353678  0.73974702     0.43820
C3433       C  0.84999949  0.44568178  0.51584530    -0.05240
C3434       C  0.83696353  0.44941336  0.54367033    -0.32670
C3435       C  0.85217920  0.46290649  0.56699927     0.36580
C3436       C  0.88085839  0.47386976  0.56285878    -0.05600
C3437       C  0.89548743  0.46610678  0.53672073    -0.32570
C3438       C  0.88049797  0.45144550  0.51365462     0.36490
H3439       H  0.81385689  0.44491279  0.54660525     0.16860
O3440       O  0.83815519  0.46705176  0.59337694    -0.60060
H3441       H  0.91776110  0.47349627  0.53313498     0.16870
O3442       O  0.89495883  0.44598870  0.48780022    -0.60160
H3443       H  0.90185574  0.42530833  0.48952822     0.43870
H3444       H  0.82102154  0.47984560  0.58880631     0.43820
C3445       C  0.80735480  0.39659611  0.51289330    -0.05240
C3446       C  0.78224154  0.39413950  0.53052844    -0.32670
C3447       C  0.77936497  0.37227540  0.55234496     0.36580
C3448       C  0.80429281  0.35671292  0.56240495    -0.05600
C3449       C  0.83067404  0.36094652  0.54674807    -0.32570
C3450       C  0.83170431  0.37874284  0.52097687     0.36490
H3451       H  0.76501032  0.41019239  0.52852114     0.16860
O3452       O  0.75288746  0.36838016  0.56624807    -0.60060
H3453       H  0.85090701  0.35159324  0.55539646     0.16870
O3454       O  0.85740348  0.38046092  0.50550834    -0.60160
H3455       H  0.85552553  0.36559923  0.48967789     0.43870
H3456       H  0.74341923  0.38799885  0.56785508     0.43820
C3457       C  0.84918532  0.49168741  0.47078157    -0.05240
C3458       C  0.87096271  0.49995586  0.45032632    -0.32670
C3459       C  0.88888458  0.52484320  0.45547286     0.36580
C3460       C  0.88664354  0.54039289  0.48227333    -0.05600
C3461       C  0.86665219  0.53010760  0.50351154    -0.32570
C3462       C  0.84619291  0.50851694  0.49661356     0.36490
H3463       H  0.87328517  0.48780453  0.42996284     0.16860
O3464       O  0.90690191  0.53488497  0.43352373    -0.60060
H3465       H  0.86367510  0.54225367  0.52384481     0.16870
O3466       O  0.82280970  0.50438343  0.51511288    -0.60160
H3467       H  0.80841211  0.51996861  0.50968586     0.43870
H3468       H  0.92595212  0.52473825  0.43696830     0.43820
C3469       C  0.80598948  0.49068607  0.42116923    -0.05240
C3470       C  0.79864368  0.51859048  0.43203853    -0.32670
C3471       C  0.78739934  0.54085581  0.41357190     0.36580
C3472       C  0.78560495  0.53729442  0.38234670    -0.05600
C3473       C  0.79305967  0.50942080  0.37118984    -0.32570
C3474       C  0.80327695  0.48639384  0.39017696     0.36490
H3475       H  0.79856586  0.52229787  0.45561040     0.16860
O3476       O  0.77776668  0.56627545  0.42667270    -0.60060
H3477       H  0.79122571  0.50557923  0.34771397     0.16870
O3478       O  0.80942617  0.45935233  0.37835732    -0.60160
H3479       H  0.83110952  0.45859749  0.37674124     0.43870
H3480       H  0.75678939  0.56290896  0.43109038     0.43820
C3481       C  0.13741593  0.94046687  0.03801563    -0.05240
C3482       C  0.15889240  0.94637546  0.01654780    -0.32670
C3483       C  0.17861310  0.96998901  0.01966146     0.36580
C3484       C  0.17667230  0.98905394  0.04410151    -0.05600
C3485       C  0.15534078  0.98318148  0.06560998    -0.32570
C3486       C  0.13626485  0.95901021  0.06293833     0.36490
H3487       H  0.16203997  0.93104968  0.99856812     0.16860
O3488       O  0.20142856  0.97263229  0.00018744    -0.60060
H3489       H  0.15360737  0.99733414  0.08468285     0.16870
O3490       O  0.11761246  0.95262472  0.08569351    -0.60160
H3491       H  0.12974385  0.94179358  0.10045814     0.43870
H3492       H  0.19416194  0.98567568  0.98418809     0.43820
C3493       C  0.22347110  0.99081082  0.08834754    -0.05240
C3494       C  0.23716883  0.96636393  0.07589916    -0.32670
C3495       C  0.24685098  0.94260767  0.09340331     0.36580
C3496       C  0.24563588  0.94400731  0.12473417    -0.05600
C3497       C  0.22923769  0.96718491  0.13709370    -0.32570
C3498       C  0.21715343  0.98982163  0.11891442     0.36490
H3499       H  0.24122711  0.96602176  0.05234694     0.16860
O3500       O  0.26017397  0.91918031  0.07982444    -0.60060
H3501       H  0.22697992  0.96857373  0.16083309     0.16870
O3502       O  0.20029965  0.01144043  0.13139026    -0.60160
H3503       H  0.18064876  0.00256329  0.13395190     0.43870
H3504       H  0.24739199  0.91386545  0.06292971     0.43820
C3505       C  0.21883951  0.08106169  0.99635446    -0.05240
C3506       C  0.24009673  0.07467266  0.97472798    -0.32670
C3507       C  0.24432416  0.09320924  0.95021721     0.36580
C3508       C  0.22730728  0.11894650  0.94677332    -0.05600
C3509       C  0.20633367  0.12565439  0.96847842    -0.32570
C3510       C  0.20215620  0.10706737  0.99319098     0.36490
H3511       H  0.25254706  0.05432505  0.97617656     0.16860
O3512       O  0.26461722  0.08560631  0.92928332    -0.60060
H3513       H  0.19219302  0.14467533  0.96550511     0.16870
O3514       O  0.18087710  0.11375266  0.01339888    -0.60160
H3515       H  0.18829796  0.13115349  0.02415463     0.43870
H3516       H  0.25541650  0.06957944  0.91774782     0.43820
C3517       C  0.16570826  0.03887589  0.00411490    -0.05240
C3518       C  0.13777127  0.03192030  0.01610034    -0.32670
C3519       C  0.11544497  0.01938705  0.99830066     0.36580
C3520       C  0.11815324  0.01954032  0.96741899    -0.05600
C3521       C  0.14147163  0.03598773  0.95586679    -0.32570
C3522       C  0.16684888  0.04099055  0.97292008     0.36490
H3523       H  0.13473425  0.03221139  0.03975374     0.16860
O3524       O  0.09220819  0.00549646  0.01135462    -0.60060
H3525       H  0.14316674  0.03811059  0.93233559     0.16870
O3526       O  0.19306977  0.04183821  0.95841285    -0.60160
H3527       H  0.19115735  0.05778256  0.94343887     0.43870
H3528       H  0.09806625  0.98449060  0.01282544     0.43820
C3529       C  0.28655587  0.37438069  0.71067138    -0.05240
C3530       C  0.29429251  0.34590441  0.70170371    -0.32670
C3531       C  0.30281155  0.32424439  0.72217380     0.36580
C3532       C  0.30913325  0.33167911  0.75191174    -0.05600
C3533       C  0.30817527  0.36210775  0.75885630    -0.32570
C3534       C  0.29559937  0.38309944  0.73906948     0.36490
H3535       H  0.28887322  0.33888389  0.67948715     0.16860
O3536       O  0.29890666  0.29575756  0.71380048    -0.60060
H3537       H  0.31297978  0.36890422  0.78124596     0.16870
O3538       O  0.28887703  0.41075633  0.74902055    -0.60160
H3539       H  0.30789681  0.42112126  0.75030829     0.43870
H3540       H  0.31134853  0.29289174  0.69611683     0.43820
C3541       C  0.24916711  0.13254415  0.31132390    -0.05240
C3542       C  0.24823754  0.16364090  0.31381392    -0.32670
C3543       C  0.23353727  0.18165940  0.29283240     0.36580
C3544       C  0.21819281  0.16904828  0.26892215    -0.05600
C3545       C  0.21539771  0.13810617  0.26890594    -0.32570
C3546       C  0.23097273  0.11998627  0.28930058     0.36490
H3547       H  0.26032877  0.17449054  0.33122528     0.16860
O3548       O  0.23723135  0.21157499  0.29405708    -0.60060
H3549       H  0.20356951  0.12773876  0.25098177     0.16870
O3550       O  0.22994734  0.09004063  0.28580834    -0.60160
H3551       H  0.24650212  0.08518056  0.27257626     0.43870
H3552       H  0.22476248  0.21821219  0.31063258     0.43820
C3553       C  0.38605638  0.24677741  0.71309149    -0.05240
C3554       C  0.35509178  0.24436990  0.71230899    -0.32670
C3555       C  0.33720969  0.25479325  0.73482911     0.36580
C3556       C  0.34791005  0.27551059  0.75494540    -0.05600
C3557       C  0.37835655  0.28184606  0.75399641    -0.32570
C3558       C  0.39753312  0.26681634  0.73411317     0.36490
H3559       H  0.34385037  0.23302996  0.69488486     0.16860
O3560       O  0.30853591  0.24533868  0.73653880    -0.60060
H3561       H  0.38763648  0.29661038  0.77020502     0.16870
O3562       O  0.42720857  0.27097927  0.73652608    -0.60160
H3563       H  0.43103636  0.28976201  0.72600244     0.43870
H3564       H  0.30865262  0.22385824  0.73270001     0.43820
C3565       C  0.17458472  0.21975130  0.26454726    -0.05240
C3566       C  0.15123153  0.20324737  0.27624292    -0.32670
C3567       C  0.13250415  0.21541975  0.29783679     0.36580
C3568       C  0.13620791  0.24480124  0.30723141    -0.05600
C3569       C  0.15912066  0.26121923  0.29466132    -0.32570
C3570       C  0.17876996  0.24868409  0.27471927     0.36490
H3571       H  0.14747052  0.18104171  0.26854141     0.16860
O3572       O  0.11159963  0.19803513  0.31071370    -0.60060
H3573       H  0.16418856  0.28278529  0.30343375     0.16870
O3574       O  0.20328192  0.26415531  0.26649243    -0.60160
H3575       H  0.19607711  0.28211411  0.25629485     0.43870
H3576       H  0.12178418  0.18795756  0.32737254     0.43820
C3577       C  0.14984156  0.27363859  0.52388735    -0.05240
C3578       C  0.15412096  0.29833061  0.54195553    -0.32670
C3579       C  0.15217947  0.32691347  0.53067301     0.36580
C3580       C  0.14568682  0.33181580  0.50040992    -0.05600
C3581       C  0.14137912  0.30710621  0.48228660    -0.32570
C3582       C  0.14306878  0.27835687  0.49379731     0.36490
H3583       H  0.15962903  0.29563520  0.56513094     0.16860
O3584       O  0.15567246  0.34983275  0.54996004    -0.60060
H3585       H  0.13573524  0.31016173  0.45922450     0.16870
O3586       O  0.13793520  0.25505673  0.47545809    -0.60160
H3587       H  0.15600111  0.25308795  0.46363030     0.43870
H3588       H  0.13566160  0.35443472  0.55712107     0.43820
C3589       C  0.18423809  0.18307952  0.43580123    -0.05240
C3590       C  0.20274939  0.19934308  0.41727158    -0.32670
C3591       C  0.19255680  0.22479679  0.40332265     0.36580
C3592       C  0.16269483  0.23224455  0.40525734    -0.05600
C3593       C  0.14331082  0.21288650  0.41955572    -0.32570
C3594       C  0.15393821  0.18876465  0.43528640     0.36490
H3595       H  0.22552881  0.19345764  0.41484793     0.16860
O3596       O  0.21186995  0.24267775  0.38856056    -0.60060
H3597       H  0.11979429  0.21647913  0.41868557     0.16870
O3598       O  0.13467089  0.17087011  0.45004413    -0.60160
H3599       H  0.12760605  0.18261456  0.46700010     0.43870
H3600       H  0.21955026  0.23076508  0.37199074     0.43820
C3601       C  0.32534357  0.17012384  0.40877468    -0.05240
C3602       C  0.34119746  0.17774623  0.38372380    -0.32670
C3603       C  0.35115044  0.15525127  0.36549925     0.36580
C3604       C  0.34180228  0.12619730  0.37093158    -0.05600
C3605       C  0.33550340  0.11888610  0.40046809    -0.32570
C3606       C  0.32551523  0.14093253  0.41904533     0.36490
H3607       H  0.34397096  0.20058163  0.37729501     0.16860
O3608       O  0.36832626  0.16191266  0.34191404    -0.60060
H3609       H  0.33152907  0.09630221  0.40711546     0.16870
O3610       O  0.31322416  0.13366556  0.44571207    -0.60160
H3611       H  0.29341265  0.12601108  0.44094906     0.43870
H3612       H  0.38846650  0.16365531  0.35007437     0.43820
C3613       C  0.35647948  0.25940110  0.60068156    -0.05240
C3614       C  0.33962155  0.24211309  0.61999504    -0.32670
C3615       C  0.35071468  0.21576961  0.63192685     0.36580
C3616       C  0.38068757  0.20891377  0.62866559    -0.05600
C3617       C  0.39716692  0.22572226  0.60855924    -0.32570
C3618       C  0.38554813  0.25073440  0.59483314     0.36490
H3619       H  0.31779655  0.24883292  0.62613773     0.16860
O3620       O  0.33263793  0.19674477  0.64703782    -0.60060
H3621       H  0.41964180  0.22011533  0.60383285     0.16870
O3622       O  0.40351941  0.26775513  0.57750576    -0.60160
H3623       H  0.41077281  0.25475181  0.56159596     0.43870
H3624       H  0.31866504  0.20875238  0.65863050     0.43820
C3625       C  0.38863425  0.19156878  0.51320108    -0.05240
C3626       C  0.38946711  0.18491424  0.54354281    -0.32670
C3627       C  0.39008897  0.15585695  0.55379438     0.36580
C3628       C  0.39101518  0.13264448  0.53353022    -0.05600
C3629       C  0.39206794  0.13942430  0.50308143    -0.32570
C3630       C  0.39107625  0.16837815  0.49292605     0.36490
H3631       H  0.38699028  0.20219315  0.55932416     0.16860
O3632       O  0.38997703  0.15034771  0.58360352    -0.60060
H3633       H  0.39536298  0.12236124  0.48691941     0.16870
O3634       O  0.39165260  0.17361028  0.46306153    -0.60160
H3635       H  0.41275634  0.17496683  0.45803622     0.43870
H3636       H  0.36898412  0.15052288  0.58924983     0.43820
C3637       C  0.22426836  0.30671247  0.61925827    -0.05240
C3638       C  0.19675721  0.31383680  0.63091637    -0.32670
C3639       C  0.19088786  0.34299720  0.63954734     0.36580
C3640       C  0.21282951  0.36425008  0.63600050    -0.05600
C3641       C  0.23642881  0.35839335  0.61747657    -0.32570
C3642       C  0.24336065  0.32948342  0.61066380     0.36490
H3643       H  0.18140571  0.29651082  0.63601716     0.16860
O3644       O  0.16431365  0.35098502  0.65136222    -0.60060
H3645       H  0.25303564  0.37510559  0.61398220     0.16870
O3646       O  0.27077036  0.32332765  0.59994434    -0.60160
H3647       H  0.27469793  0.33787173  0.58404341     0.43870
H3648       H  0.15685613  0.33389490  0.66254856     0.43820
C3649       C  0.47438669  0.11014578  0.53301896    -0.05240
C3650       C  0.46867785  0.14020427  0.52721577    -0.32670
C3651       C  0.48710773  0.16255084  0.53756815     0.36580
C3652       C  0.51434325  0.15551192  0.55061810    -0.05600
C3653       C  0.52089800  0.12543555  0.55574548    -0.32570
C3654       C  0.50070371  0.10302010  0.54807713     0.36490
H3655       H  0.44838780  0.14668726  0.51658492     0.16860
O3656       O  0.47884196  0.19138109  0.53354282    -0.60060
H3657       H  0.54182235  0.11934494  0.56556424     0.16870
O3658       O  0.50680078  0.07434036  0.55557340    -0.60160
H3659       H  0.49917195  0.07188249  0.57588469     0.43870
H3660       H  0.46168975  0.19435887  0.54659236     0.43820
C3661       C  0.51275045  0.20256803  0.59688920    -0.05240
C3662       C  0.51352222  0.18399088  0.62172282    -0.32670
C3663       C  0.49365050  0.18791212  0.64512459     0.36580
C3664       C  0.47368764  0.21191427  0.64522267    -0.05600
C3665       C  0.47403404  0.23130517  0.62100622    -0.32570
C3666       C  0.49206739  0.22594883  0.59633282     0.36490
H3667       H  0.52933745  0.16609969  0.62279313     0.16860
O3668       O  0.49276048  0.16719225  0.66717145    -0.60060
H3669       H  0.45805425  0.24905393  0.61990797     0.16870
O3670       O  0.48869135  0.24259376  0.57100913    -0.60160
H3671       H  0.48212676  0.26255947  0.57689267     0.43870
H3672       H  0.48278879  0.14996408  0.65836498     0.43820
C3673       C  0.71776968  0.28134835  0.39009638    -0.05240
C3674       C  0.74542665  0.29175630  0.39900197    -0.32670
C3675       C  0.76776671  0.29717726  0.37811845     0.36580
C3676       C  0.76294175  0.29195105  0.34766564    -0.05600
C3677       C  0.73527955  0.28214134  0.33876757    -0.32570
C3678       C  0.71313190  0.27650878  0.35936162     0.36490
H3679       H  0.74941749  0.29664674  0.42205112     0.16860
O3680       O  0.79435772  0.30751550  0.38771034    -0.60060
H3681       H  0.73109668  0.27767964  0.31564274     0.16870
O3682       O  0.68658195  0.26695113  0.34885897    -0.60160
H3683       H  0.68991319  0.24623702  0.34285297     0.43870
H3684       H  0.79300568  0.32921608  0.38551693     0.43820
C3685       C  0.64804480  0.23304528  0.46692976    -0.05240
C3686       C  0.62185435  0.22060511  0.45611597    -0.32670
C3687       C  0.60028305  0.20949533  0.47504876     0.36580
C3688       C  0.60607732  0.20536461  0.50556953    -0.05600
C3689       C  0.63566292  0.21051667  0.51459953    -0.32570
C3690       C  0.65576984  0.22597809  0.49626277     0.36490
H3691       H  0.61539521  0.22439446  0.43344074     0.16860
O3692       O  0.57279865  0.20654304  0.46343610    -0.60060
H3693       H  0.64192949  0.20625123  0.53731382     0.16870
O3694       O  0.68128268  0.23659155  0.50820153    -0.60160
H3695       H  0.69654937  0.22192262  0.50296092     0.43870
H3696       H  0.56521515  0.22687327  0.46050293     0.43820
C3697       C  0.71221454  0.37095038  0.28470548    -0.05240
C3698       C  0.72074484  0.34950332  0.26412837    -0.32670
C3699       C  0.74401795  0.32996335  0.26987784     0.36580
C3700       C  0.76074217  0.33236930  0.29604306    -0.05600
C3701       C  0.75293172  0.35433861  0.31638796    -0.32570
C3702       C  0.72849690  0.37291893  0.31112902     0.36490
H3703       H  0.70705851  0.34574457  0.24485701     0.16860
O3704       O  0.74969446  0.30788961  0.25012022    -0.60060
H3705       H  0.76530967  0.35654020  0.33674253     0.16870
O3706       O  0.71932141  0.39142191  0.33288079    -0.60160
H3707       H  0.70586243  0.37939106  0.34508250     0.43870
H3708       H  0.73730025  0.29116924  0.25649340     0.43820
C3709       C  0.30900949  0.13408713  0.25171906    -0.05240
C3710       C  0.28783687  0.11851803  0.23507904    -0.32670
C3711       C  0.26394198  0.13349645  0.22091249     0.36580
C3712       C  0.26056993  0.16438032  0.22383692    -0.05600
C3713       C  0.28164419  0.17953595  0.23940169    -0.32570
C3714       C  0.30580007  0.16572919  0.25183562     0.36490
H3715       H  0.28936853  0.09478493  0.23351810     0.16860
O3716       O  0.24321244  0.11759998  0.20596413    -0.60060
H3717       H  0.27881936  0.20294407  0.24314538     0.16870
O3718       O  0.32657446  0.18459375  0.26263308    -0.60160
H3719       H  0.31743698  0.19490604  0.27957307     0.43870
H3720       H  0.24888295  0.11902922  0.18491229     0.43820
C3721       C  0.55101898  0.16329394  0.50162276    -0.05240
C3722       C  0.55847968  0.13324928  0.49837809    -0.32670
C3723       C  0.54172821  0.11447613  0.47981231     0.36580
C3724       C  0.51684785  0.12544652  0.46435610    -0.05600
C3725       C  0.51134959  0.15603255  0.46631780    -0.32570
C3726       C  0.52759096  0.17457451  0.48460513     0.36490
H3727       H  0.57566690  0.12378397  0.51213550     0.16860
O3728       O  0.54823868  0.08504261  0.47922848    -0.60060
H3729       H  0.49294561  0.16620384  0.45551009     0.16870
O3730       O  0.51972651  0.20389328  0.48734145    -0.60160
H3731       H  0.49827420  0.20582590  0.48405755     0.43870
H3732       H  0.56395101  0.08313604  0.46431148     0.43820
C3733       C  0.25935593  0.20329224  0.17074191    -0.05240
C3734       C  0.28571788  0.21740403  0.17857148    -0.32670
C3735       C  0.30647189  0.22571396  0.15741553     0.36580
C3736       C  0.30212760  0.21927431  0.12732043    -0.05600
C3737       C  0.27613999  0.20463604  0.11922915    -0.32570
C3738       C  0.25478608  0.19706760  0.14051397     0.36490
H3739       H  0.28977279  0.22384588  0.20100429     0.16860
O3740       O  0.33164660  0.23938845  0.16662697    -0.60060
H3741       H  0.27267305  0.19849977  0.09642956     0.16870
O3742       O  0.22911982  0.18424691  0.13144041    -0.60160
H3743       H  0.23254366  0.16276016  0.13361466     0.43870
H3744       H  0.32751912  0.26075644  0.16446587     0.43820
C3745       C  0.46210535  0.20441056  0.12280159    -0.05240
C3746       C  0.44082762  0.22168954  0.13675632    -0.32670
C3747       C  0.41131523  0.21489927  0.13478156     0.36580
C3748       C  0.40250648  0.19137452  0.11683922    -0.05600
C3749       C  0.42381310  0.17161805  0.10629687    -0.32570
C3750       C  0.45373130  0.17821950  0.10895837     0.36490
H3751       H  0.44704822  0.24174813  0.14800904     0.16860
O3752       O  0.39113435  0.23504630  0.14481002    -0.60060
H3753       H  0.41733884  0.15215721  0.09450540     0.16870
O3754       O  0.47440551  0.15890976  0.09855604    -0.60160
H3755       H  0.47691881  0.16428496  0.07748642     0.43870
H3756       H  0.39250465  0.23432780  0.16661013     0.43820
C3757       C  0.56717395  0.28967514  0.14211804    -0.05240
C3758       C  0.53806889  0.28397706  0.13341127    -0.32670
C3759       C  0.51536243  0.30372813  0.13957166     0.36580
C3760       C  0.52188435  0.33195651  0.15078387    -0.05600
C3761       C  0.55146988  0.33794142  0.15850422    -0.32570
C3762       C  0.57371359  0.31697138  0.15486509     0.36490
H3763       H  0.53218669  0.26277715  0.12446721     0.16860
O3764       O  0.48687580  0.29416845  0.13703615    -0.60060
H3765       H  0.55805264  0.35922163  0.16674034     0.16870
O3766       O  0.60179280  0.32356053  0.16357246    -0.60160
H3767       H  0.60179519  0.32132724  0.18534884     0.43870
H3768       H  0.48431700  0.28771184  0.11629138     0.43820
C3769       C  0.46896724  0.14617350  0.34128538    -0.05240
C3770       C  0.44380351  0.12855884  0.34245723    -0.32670
C3771       C  0.43250415  0.11932541  0.36966172     0.36580
C3772       C  0.44715617  0.12723232  0.39619284    -0.05600
C3773       C  0.46858237  0.14935609  0.39423521    -0.32570
C3774       C  0.48033609  0.15781450  0.36745742     0.36490
H3775       H  0.43389309  0.12059722  0.32242027     0.16860
O3776       O  0.40893511  0.10058613  0.36964603    -0.60060
H3777       H  0.47897823  0.15808318  0.41329969     0.16870
O3778       O  0.50334590  0.17726644  0.36723934    -0.60160
H3779       H  0.52097008  0.16534684  0.37245101     0.43870
H3780       H  0.39622096  0.10689641  0.38612237     0.43820
C3781       C  0.59938441  0.22401136  0.35654875    -0.05240
C3782       C  0.58300495  0.24894204  0.36486114    -0.32670
C3783       C  0.59594822  0.27086096  0.38218590     0.36580
C3784       C  0.62536073  0.26767638  0.39106520    -0.05600
C3785       C  0.64063368  0.24151668  0.38374225    -0.32570
C3786       C  0.62796472  0.22004597  0.36661034     0.36490
H3787       H  0.56086156  0.25218048  0.35650149     0.16860
O3788       O  0.57996734  0.29524145  0.38997316    -0.60060
H3789       H  0.66265270  0.23711403  0.39129678     0.16870
O3790       O  0.64415551  0.19579042  0.35866020    -0.60160
H3791       H  0.64022273  0.18081703  0.37413650     0.43870
H3792       H  0.58305891  0.30965745  0.37378061     0.43820
C3793       C  0.63451169  0.32048279  0.26292786    -0.05240
C3794       C  0.64222545  0.31335966  0.23389105    -0.32670
C3795       C  0.64905291  0.28440138  0.22605514     0.36580
C3796       C  0.64770550  0.26151552  0.24721596    -0.05600
C3797       C  0.64058438  0.26868501  0.27649595    -0.32570
C3798       C  0.63339765  0.29769069  0.28424455     0.36490
H3799       H  0.64516720  0.33069013  0.21763567     0.16860
O3800       O  0.65795245  0.27887089  0.19775036    -0.60060
H3801       H  0.63964990  0.25169084  0.29331452     0.16870
O3802       O  0.62668021  0.30386696  0.31305051    -0.60160
H3803       H  0.60534341  0.30009620  0.31476369     0.43870
H3804       H  0.67959987  0.28098511  0.19817836     0.43820
C3805       C  0.39758745  0.21525548  0.23055054    -0.05240
C3806       C  0.38375909  0.19141141  0.21726701    -0.32670
C3807       C  0.38108806  0.16556088  0.23379408     0.36580
C3808       C  0.38571891  0.16618881  0.26482462    -0.05600
C3809       C  0.38930741  0.19361052  0.27854830    -0.32570
C3810       C  0.39305471  0.21892015  0.26108109     0.36490
H3811       H  0.38291234  0.18982799  0.19341997     0.16860
O3812       O  0.37384672  0.14002021  0.21954116    -0.60060
H3813       H  0.38992312  0.19534868  0.30233320     0.16870
O3814       O  0.40091665  0.24476354  0.27436247    -0.60160
H3815       H  0.38211870  0.25511264  0.27817796     0.43870
H3816       H  0.39277343  0.13162019  0.21280586     0.43820
C3817       C  0.17778098  0.48129315  0.55419890    -0.05240
C3818       C  0.14677174  0.48348549  0.55240655    -0.32670
C3819       C  0.12953063  0.45996200  0.54142771     0.36580
C3820       C  0.14279275  0.43236342  0.53498836    -0.05600
C3821       C  0.17219771  0.42885120  0.54416036    -0.32570
C3822       C  0.19002372  0.45294085  0.55065271     0.36490
H3823       H  0.13630572  0.50464581  0.55589922     0.16860
O3824       O  0.10026339  0.46494782  0.53616441    -0.60060
H3825       H  0.18292691  0.40763008  0.54375014     0.16870
O3826       O  0.21963916  0.44908968  0.54794370    -0.60160
H3827       H  0.22497588  0.43222833  0.56100536     0.43870
H3828       H  0.09873596  0.47012729  0.51495275     0.43820
C3829       C  0.22744062  0.49236216  0.59718438    -0.05240
C3830       C  0.21405463  0.49675603  0.62464969    -0.32670
C3831       C  0.22369801  0.48137863  0.64989419     0.36580
C3832       C  0.24580202  0.45953416  0.64745359    -0.05600
C3833       C  0.26043521  0.45652393  0.62053927    -0.32570
C3834       C  0.25189384  0.47303577  0.59563921     0.36490
H3835       H  0.19692250  0.51324768  0.62675130     0.16860
O3836       O  0.21161347  0.48857870  0.67671991    -0.60060
H3837       H  0.27693132  0.43939946  0.61814779     0.16870
O3838       O  0.26680951  0.46980427  0.56940085    -0.60160
H3839       H  0.28745044  0.46444866  0.57405735     0.43870
H3840       H  0.21136971  0.47070882  0.68932654     0.43820
C3841       C  0.26342538  0.67269430  0.36705349    -0.05240
C3842       C  0.28851192  0.69050083  0.36851945    -0.32670
C3843       C  0.29477029  0.71130636  0.34623684     0.36580
C3844       C  0.27639314  0.71396481  0.32112373    -0.05600
C3845       C  0.25161127  0.69550677  0.31940069    -0.32570
C3846       C  0.24508714  0.67512936  0.34201955     0.36490
H3847       H  0.30332928  0.68838588  0.38724483     0.16860
O3848       O  0.31869695  0.72920236  0.34940419    -0.60060
H3849       H  0.23685354  0.69740258  0.30062569     0.16870
O3850       O  0.22080667  0.65760465  0.33936620    -0.60160
H3851       H  0.22792587  0.63939029  0.32972022     0.43870
H3852       H  0.31602447  0.73979202  0.36828622     0.43820
C3853       C  0.21370123  0.62017083  0.45512943    -0.05240
C3854       C  0.21424970  0.62906424  0.48476529    -0.32670
C3855       C  0.20731916  0.60887571  0.50752300     0.36580
C3856       C  0.20533574  0.57833614  0.50140295    -0.05600
C3857       C  0.20055201  0.57078364  0.47160181    -0.32570
C3858       C  0.20106196  0.59244281  0.44923193     0.36490
H3859       H  0.22202318  0.65082569  0.49042006     0.16860
O3860       O  0.20429799  0.61888691  0.53580529    -0.60060
H3861       H  0.19804342  0.54815702  0.46496163     0.16870
O3862       O  0.19560211  0.58442261  0.42061560    -0.60160
H3863       H  0.17553806  0.59187313  0.41627547     0.43870
H3864       H  0.18284022  0.62079311  0.53879183     0.43820
C3865       C  0.38341997  0.68982752  0.27249861    -0.05240
C3866       C  0.38225058  0.71586430  0.28895324    -0.32670
C3867       C  0.35561019  0.73067156  0.29357094     0.36580
C3868       C  0.32936882  0.71991822  0.28107667    -0.05600
C3869       C  0.33042624  0.69391852  0.26441884    -0.32570
C3870       C  0.35720683  0.67902546  0.25993547     0.36490
H3871       H  0.40200403  0.72397744  0.29953472     0.16860
O3872       O  0.35545267  0.75667002  0.30895468    -0.60060
H3873       H  0.31065162  0.68589379  0.25384073     0.16870
O3874       O  0.35733621  0.65331731  0.24423506    -0.60160
H3875       H  0.36227740  0.65920722  0.22375728     0.43870
H3876       H  0.36562287  0.75262900  0.32798438     0.43820
C3877       C  0.17113669  0.52002322  0.50461459    -0.05240
C3878       C  0.14337508  0.53333004  0.49995442    -0.32670
C3879       C  0.12248559  0.52050650  0.48055974     0.36580
C3880       C  0.12822623  0.49292867  0.46737928    -0.05600
C3881       C  0.15556431  0.47938983  0.47347441    -0.32570
C3882       C  0.17741477  0.49370120  0.48952142     0.36490
H3883       H  0.13802568  0.55364677  0.51115641     0.16860
O3884       O  0.09705537  0.53546671  0.47396338    -0.60060
H3885       H  0.16118694  0.45877276  0.46287906     0.16870
O3886       O  0.20481318  0.48106003  0.49138255    -0.60160
H3887       H  0.21689644  0.49192178  0.47685747     0.43870
H3888       H  0.10130650  0.54655444  0.45556530     0.43820
C3889       C  0.16288832  0.24909881  0.20866451    -0.05240
C3890       C  0.13478443  0.23842279  0.21704789    -0.32670
C3891       C  0.11270038  0.25769841  0.22763678     0.36580
C3892       C  0.11649328  0.28829990  0.22537530    -0.05600
C3893       C  0.13954599  0.29804792  0.20735714    -0.32570
C3894       C  0.16417997  0.27994317  0.20258671     0.36490
H3895       H  0.13153885  0.21494907  0.21963656     0.16860
O3896       O  0.08861121  0.24636689  0.24162432    -0.60060
H3897       H  0.14231410  0.32160321  0.20431330     0.16870
O3898       O  0.19006081  0.29420701  0.19794287    -0.60160
H3899       H  0.18771856  0.30478720  0.17883955     0.43870
H3900       H  0.09193601  0.24975671  0.26296142     0.43820
C3901       C  0.22449573  0.25338752  0.17623608    -0.05240
C3902       C  0.21827228  0.26012170  0.14650108    -0.32670
C3903       C  0.23270639  0.28357081  0.13200644     0.36580
C3904       C  0.25499718  0.29964067  0.14677713    -0.05600
C3905       C  0.26118004  0.29204060  0.17643939    -0.32570
C3906       C  0.24570621  0.27010759  0.19131427     0.36490
H3907       H  0.20220393  0.24723583  0.13458791     0.16860
O3908       O  0.22439887  0.29062156  0.10372254    -0.60060
H3909       H  0.27842197  0.30304901  0.18858282     0.16870
O3910       O  0.25081964  0.26515293  0.22096228    -0.60160
H3911       H  0.27237514  0.26499096  0.22405758     0.43870
H3912       H  0.20944562  0.30641506  0.10578391     0.43820
C3913       C  0.29759943  0.39909974  0.15472175    -0.05240
C3914       C  0.27027329  0.41321594  0.15141518    -0.32670
C3915       C  0.26757975  0.44339892  0.15565648     0.36580
C3916       C  0.29223159  0.45980527  0.16430520    -0.05600
C3917       C  0.31949611  0.44564835  0.16741781    -0.32570
C3918       C  0.32242745  0.41552248  0.16239296     0.36490
H3919       H  0.25121200  0.40099037  0.14409275     0.16860
O3920       O  0.24069694  0.45664832  0.15158842    -0.60060
H3921       H  0.33812316  0.45755524  0.17544252     0.16870
O3922       O  0.34954063  0.40236669  0.16467464    -0.60160
H3923       H  0.35245418  0.39844412  0.18604977     0.43870
H3924       H  0.24024179  0.46276899  0.13054164     0.43820
C3925       C  0.29734725  0.51001641  0.40378004    -0.05240
C3926       C  0.31963631  0.53113248  0.39941243    -0.32670
C3927       C  0.31322853  0.56139691  0.39886714     0.36580
C3928       C  0.28453532  0.57092551  0.40442429    -0.05600
C3929       C  0.26254114  0.54989381  0.40915546    -0.32570
C3930       C  0.26858701  0.51986000  0.40937927     0.36490
H3931       H  0.34211602  0.52420990  0.39606869     0.16860
O3932       O  0.33524800  0.58132094  0.39418247    -0.60060
H3933       H  0.24037762  0.55680807  0.41363030     0.16870
O3934       O  0.24663059  0.50039448  0.41652342    -0.60160
H3935       H  0.22890083  0.50645953  0.40516769     0.43870
H3936       H  0.33835086  0.58149132  0.37253802     0.43820
C3937       C  0.40419873  0.46640292  0.19315762    -0.05240
C3938       C  0.39063708  0.47515352  0.16667362    -0.32670
C3939       C  0.39676534  0.46136533  0.14058269     0.36580
C3940       C  0.42197933  0.44349658  0.13851567    -0.05600
C3941       C  0.43486481  0.43298984  0.16490494    -0.32570
C3942       C  0.42573957  0.44402591  0.19239985     0.36490
H3943       H  0.37375230  0.49207882  0.16604969     0.16860
O3944       O  0.37977520  0.46850768  0.11654977    -0.60060
H3945       H  0.45282473  0.41744453  0.16381627     0.16870
O3946       O  0.43784263  0.43289239  0.21793479    -0.60160
H3947       H  0.45233315  0.44776541  0.22436938     0.43870
H3948       H  0.36529714  0.45236693  0.11492186     0.43820
C3949       C  0.40476208  0.54738131  0.33372565    -0.05240
C3950       C  0.39787530  0.56095901  0.30670146    -0.32670
C3951       C  0.39851286  0.59088238  0.30337636     0.36580
C3952       C  0.41309314  0.60769340  0.32456051    -0.05600
C3953       C  0.41946282  0.59517598  0.35241822    -0.32570
C3954       C  0.41392274  0.56503408  0.35752233     0.36490
H3955       H  0.39130632  0.54850162  0.28758319     0.16860
O3956       O  0.38915951  0.60296242  0.27707222    -0.60060
H3957       H  0.42862751  0.60835493  0.36989459     0.16870
O3958       O  0.41844250  0.55305729  0.38503888    -0.60160
H3959       H  0.43978731  0.54880081  0.38617289     0.43870
H3960       H  0.36783372  0.60643135  0.27965400     0.43820
C3961       C  0.18570043  0.41009441  0.23261665    -0.05240
C3962       C  0.19768589  0.38399123  0.24439961    -0.32670
C3963       C  0.18075970  0.36535305  0.26183462     0.36580
C3964       C  0.15061278  0.37129503  0.26555874    -0.05600
C3965       C  0.13849493  0.39671835  0.25205996    -0.32570
C3966       C  0.15570635  0.41585162  0.23558052     0.36490
H3967       H  0.22119329  0.38015963  0.24352354     0.16860
O3968       O  0.19422315  0.34222718  0.27620312    -0.60060
H3969       H  0.11551632  0.40204693  0.25421847     0.16870
O3970       O  0.14376853  0.44190336  0.22554539    -0.60160
H3971       H  0.14314459  0.44016066  0.20374036     0.43870
H3972       H  0.19839490  0.34947669  0.29639514     0.43820
C3973       C  0.18477553  0.49441670  0.33092317    -0.05240
C3974       C  0.17965714  0.51731665  0.35056296    -0.32670
C3975       C  0.15336703  0.51667272  0.36603867     0.36580
C3976       C  0.13483940  0.49207525  0.36177144    -0.05600
C3977       C  0.13559548  0.47781967  0.33442101    -0.32570
C3978       C  0.16023607  0.48157796  0.31709836     0.36490
H3979       H  0.19743476  0.53114123  0.35821413     0.16860
O3980       O  0.14769232  0.53711509  0.38761027    -0.60060
H3981       H  0.11990527  0.46121379  0.32807786     0.16870
O3982       O  0.16310508  0.46516865  0.29200258    -0.60160
H3983       H  0.16002651  0.47935988  0.27555042     0.43870
H3984       H  0.16509347  0.53726548  0.40087262     0.43820
C3985       C  0.51138809  0.58140062  0.21883707    -0.05240
C3986       C  0.48824143  0.56974279  0.23513209    -0.32670
C3987       C  0.46492268  0.58727295  0.24431921     0.36580
C3988       C  0.46614751  0.61832431  0.24168677    -0.05600
C3989       C  0.48836918  0.63026143  0.22379075    -0.32570
C3990       C  0.51047696  0.61176117  0.21146546     0.36490
H3991       H  0.48845227  0.54662049  0.24126803     0.16860
O3992       O  0.44218378  0.57387468  0.25859014    -0.60060
H3993       H  0.48960796  0.65388963  0.22080541     0.16870
O3994       O  0.53161833  0.62336825  0.19332079    -0.60160
H3995       H  0.53834905  0.64191326  0.20255152     0.43870
H3996       H  0.42827433  0.56816922  0.24273222     0.43820
C3997       C  0.51406431  0.54043180  0.16636638    -0.05240
C3998       C  0.48403738  0.53560633  0.17163596    -0.32670
C3999       C  0.46451598  0.52789089  0.14884738     0.36580
C4000       C  0.47493389  0.52183474  0.12018220    -0.05600
C4001       C  0.50422919  0.52922888  0.11401576    -0.32570
C4002       C  0.52350733  0.53913339  0.13663258     0.36490
H4003       H  0.47579929  0.53466877  0.19379606     0.16860
O4004       O  0.43608444  0.52142933  0.15603193    -0.60060
H4005       H  0.51294498  0.52481860  0.09228071     0.16870
O4006       O  0.55212352  0.54586437  0.13000851    -0.60160
H4007       H  0.56000556  0.52911399  0.11852367     0.43870
H4008       H  0.42447177  0.53889426  0.14968614     0.43820
C4009       C  0.52122525  0.43658890  0.15105885    -0.05240
C4010       C  0.50923918  0.44660173  0.17771687    -0.32670
C4011       C  0.51956225  0.47185645  0.19140311     0.36580
C4012       C  0.54398186  0.48654682  0.17984050    -0.05600
C4013       C  0.55725526  0.47601127  0.15399028    -0.32570
C4014       C  0.54555864  0.45148059  0.13916988     0.36490
H4015       H  0.49155127  0.43484236  0.18810671     0.16860
O4016       O  0.50530915  0.48268957  0.21578582    -0.60060
H4017       H  0.57641144  0.48694048  0.14522595     0.16870
O4018       O  0.55859913  0.44172086  0.11382016    -0.60160
H4019       H  0.57318213  0.42674131  0.12040181     0.43870
H4020       H  0.50499399  0.46650115  0.23055023     0.43820
C4021       C  0.59200642  0.48174495  0.22280057    -0.05240
C4022       C  0.57741527  0.45791262  0.23593712    -0.32670
C4023       C  0.59258513  0.43297915  0.24665095     0.36580
C4024       C  0.62348249  0.43016988  0.24345262    -0.05600
C4025       C  0.63813841  0.45371887  0.22934191    -0.32570
C4026       C  0.62274904  0.47917646  0.21925657     0.36490
H4027       H  0.55425433  0.45968590  0.24046452     0.16860
O4028       O  0.57687108  0.41233322  0.26201970    -0.60060
H4029       H  0.66166710  0.45266186  0.22628672     0.16870
O4030       O  0.63818219  0.50195354  0.20698790    -0.60160
H4031       H  0.63728761  0.49857810  0.18539629     0.43870
H4032       H  0.57791387  0.41859138  0.28293289     0.43820
C4033       C  0.47124513  0.33015204  0.02050013    -0.05240
C4034       C  0.45989240  0.35894780  0.02327051    -0.32670
C4035       C  0.46674733  0.37626124  0.04822903     0.36580
C4036       C  0.48572959  0.36527693  0.07027994    -0.05600
C4037       C  0.49882546  0.33755684  0.06597209    -0.32570
C4038       C  0.49044856  0.31941503  0.04269394     0.36490
H4039       H  0.44569073  0.36791489  0.00614737     0.16860
O4040       O  0.45431788  0.40346652  0.05120664    -0.60060
H4041       H  0.51415201  0.32885238  0.08223409     0.16870
O4042       O  0.50177829  0.29127360  0.04120002    -0.60160
H4043       H  0.50002013  0.28235925  0.06115752     0.43870
H4044       H  0.46928292  0.41743865  0.04386192     0.43820
C4045       C  0.42030471  0.28878789  0.01392246    -0.05240
C4046       C  0.42830218  0.28120609  0.04281256    -0.32670
C4047       C  0.40754284  0.27264568  0.06391651     0.36580
C4048       C  0.37830126  0.26629305  0.05538721    -0.05600
C4049       C  0.36918796  0.27676991  0.02744221    -0.32570
C4050       C  0.38968354  0.28997300  0.00778296     0.36490
H4051       H  0.45093008  0.27980140  0.04901508     0.16860
O4052       O  0.41669075  0.26718069  0.09235827    -0.60060
H4053       H  0.34670609  0.27359189  0.02029209     0.16870
O4054       O  0.37970714  0.30265466  0.98211402    -0.60160
H4055       H  0.37722605  0.32382486  0.98674867     0.43870
H4056       H  0.43477423  0.25509307  0.09081752     0.43820
C4057       C  0.50883201  0.29796152  0.91711526    -0.05240
C4058       C  0.49662801  0.28837892  0.88980291    -0.32670
C4059       C  0.51459898  0.27827521  0.86638252     0.36580
C4060       C  0.54513320  0.28267433  0.86723636    -0.05600
C4061       C  0.55518578  0.30204075  0.88923860    -0.32570
C4062       C  0.53914675  0.30582377  0.91556331     0.36490
H4063       H  0.47320983  0.28484682  0.88810344     0.16860
O4064       O  0.50252857  0.26121247  0.84467210    -0.60060
H4065       H  0.57836413  0.30707309  0.88999994     0.16870
O4066       O  0.55521218  0.31332078  0.93977726    -0.60160
H4067       H  0.56446917  0.29468573  0.94671105     0.43870
H4068       H  0.49820971  0.27502230  0.82816563     0.43820
C4069       C  0.51751893  0.33105920  0.97955335    -0.05240
C4070       C  0.53803460  0.31587756  0.99729438    -0.32670
C4071       C  0.56054348  0.33048295  0.01239438     0.36580
C4072       C  0.56574166  0.36084898  0.00748896    -0.05600
C4073       C  0.54591927  0.37610653  0.98856527    -0.32570
C4074       C  0.52158241  0.36161256  0.97536499     0.36490
H4075       H  0.53571767  0.29237147  0.00055031     0.16860
O4076       O  0.57566342  0.31530258  0.03401777    -0.60060
H4077       H  0.54902923  0.39931849  0.98411181     0.16870
O4078       O  0.50226084  0.37733509  0.95803499    -0.60160
H4079       H  0.48922054  0.38771189  0.97203505     0.43870
H4080       H  0.58703199  0.29996252  0.02368633     0.43820
C4081       C  0.43740197  0.01404198  0.29075787    -0.05240
C4082       C  0.44594997  0.03636852  0.27112526    -0.32670
C4083       C  0.42600279  0.05806503  0.26117773     0.36580
C4084       C  0.39710908  0.05968702  0.27262372    -0.05600
C4085       C  0.38872237  0.03773283  0.29297327    -0.32570
C4086       C  0.40842047  0.01497795  0.30174774     0.36490
H4087       H  0.46785961  0.03585802  0.26194913     0.16860
O4088       O  0.43517238  0.07784330  0.24019882    -0.60060
H4089       H  0.36714781  0.03874689  0.30287484     0.16870
O4090       O  0.39894305  0.99333260  0.32057187    -0.60160
H4091       H  0.39981340  0.00218201  0.34051150     0.43870
H4092       H  0.42686040  0.07065092  0.22130576     0.43820
C4093       C  0.47879950  0.00556055  0.34137337    -0.05240
C4094       C  0.46199518  0.00033749  0.36668016    -0.32670
C4095       C  0.46539774  0.01755656  0.39211372     0.36580
C4096       C  0.48453435  0.04198719  0.39223232    -0.05600
C4097       C  0.50086139  0.04772183  0.36653476    -0.32570
C4098       C  0.49860694  0.02935770  0.34153711     0.36490
H4099       H  0.44701141  0.98188891  0.36716733     0.16860
O4100       O  0.44953382  0.01069344  0.41689585    -0.60060
H4101       H  0.51451751  0.06715638  0.36541404     0.16870
O4102       O  0.51494776  0.03555165  0.31696702    -0.60160
H4103       H  0.53317126  0.02373925  0.31927454     0.43870
H4104       H  0.42869457  0.01460947  0.41167404     0.43820
C4105       C  0.55736183  0.97889089  0.38721550    -0.05240
C4106       C  0.56831106  0.97238995  0.35907407    -0.32670
C4107       C  0.54987925  0.96294607  0.33604234     0.36580
C4108       C  0.52024844  0.95675801  0.34178064    -0.05600
C4109       C  0.51146453  0.95599806  0.37170286    -0.32570
C4110       C  0.52919818  0.96850264  0.39407939     0.36490
H4111       H  0.59030878  0.97863233  0.35413386     0.16860
O4112       O  0.55997646  0.96385899  0.30759269    -0.60060
H4113       H  0.48936045  0.94933374  0.37709862     0.16870
O4114       O  0.51755325  0.97348021  0.42142590    -0.60160
H4115       H  0.52489803  0.95700706  0.43393780     0.43870
H4116       H  0.57424797  0.94737029  0.30619249     0.43820
C4117       C  0.51751305  0.91194251  0.29205554    -0.05240
C4118       C  0.53845676  0.91095689  0.26927094    -0.32670
C4119       C  0.55350209  0.88472208  0.26219390     0.36580
C4120       C  0.54881995  0.85874379  0.27871628    -0.05600
C4121       C  0.52776121  0.85980598  0.30143255    -0.32570
C4122       C  0.51242833  0.88592486  0.30820548     0.36490
H4123       H  0.54257625  0.93058815  0.25632455     0.16860
O4124       O  0.57392904  0.88519878  0.24009821    -0.60060
H4125       H  0.52374965  0.84032333  0.31457306     0.16870
O4126       O  0.49157540  0.88547794  0.32989554    -0.60160
H4127       H  0.50230059  0.89032997  0.34833139     0.43870
H4128       H  0.56273744  0.88099473  0.22177439     0.43820
C4129       C  0.61047210  0.74011019  0.06285976    -0.05240
C4130       C  0.63933029  0.72828447  0.05963962    -0.32670
C4131       C  0.66256708  0.74525399  0.04751775     0.36580
C4132       C  0.65876952  0.77564775  0.04255276    -0.05600
C4133       C  0.63310786  0.78844465  0.05425164    -0.32570
C4134       C  0.60841001  0.77127547  0.06105501     0.36490
H4135       H  0.64259952  0.70473805  0.06192632     0.16860
O4136       O  0.68728641  0.73129246  0.03752185    -0.60060
H4137       H  0.62959434  0.81192645  0.05155948     0.16870
O4138       O  0.58207797  0.78558766  0.06176932    -0.60160
H4139       H  0.57747982  0.79094121  0.04097587     0.43870
H4140       H  0.70185704  0.73316681  0.05373389     0.43820
C4141       C  0.73492365  0.84505759  0.99119676    -0.05240
C4142       C  0.73540681  0.86906846  0.01052655    -0.32670
C4143       C  0.74790492  0.89620455  0.00239317     0.36580
C4144       C  0.76531882  0.89871565  0.97666990    -0.05600
C4145       C  0.76670125  0.87401985  0.95806148    -0.32570
C4146       C  0.75095853  0.84795673  0.96459254     0.36490
H4147       H  0.72390928  0.86786917  0.03119544     0.16860
O4148       O  0.74356989  0.92018718  0.02020133    -0.60060
H4149       H  0.77980377  0.87503439  0.93821006     0.16870
O4150       O  0.75000412  0.82597800  0.94400272    -0.60160
H4151       H  0.76590620  0.81208696  0.94981126     0.43870
H4152       H  0.72219954  0.92140010  0.02409707     0.43820
C4153       C  0.64012868  0.01401133  0.81241954    -0.05240
C4154       C  0.61006583  0.00826981  0.81448928    -0.32670
C4155       C  0.58961678  0.02286528  0.79653750     0.36580
C4156       C  0.59885452  0.03594746  0.77004857    -0.05600
C4157       C  0.62940895  0.03881492  0.76540336    -0.32570
C4158       C  0.64989799  0.02925924  0.78722482     0.36490
H4159       H  0.60235312  0.99361581  0.83143826     0.16860
O4160       O  0.56035565  0.02129892  0.80337546    -0.60060
H4161       H  0.63725691  0.04842211  0.74500994     0.16870
O4162       O  0.67921809  0.03445141  0.78360835    -0.60160
H4163       H  0.68701949  0.01658470  0.77385048     0.43870
H4164       H  0.55796470  0.03343874  0.82133413     0.43820
C4165       C  0.70813744  0.96986737  0.89500922    -0.05240
C4166       C  0.70474948  0.96214216  0.92506767    -0.32670
C4167       C  0.72854504  0.95276511  0.94254908     0.36580
C4168       C  0.75581193  0.94645537  0.92955205    -0.05600
C4169       C  0.75722760  0.94766044  0.89835165    -0.32570
C4170       C  0.73438119  0.96077679  0.88130983     0.36490
H4171       H  0.68415645  0.96620999  0.93616803     0.16860
O4172       O  0.72586494  0.95374022  0.97264324    -0.60060
H4173       H  0.77745872  0.94157950  0.88750809     0.16870
O4174       O  0.73934464  0.96725124  0.85220419    -0.60160
H4175       H  0.72992836  0.95114278  0.84107218     0.43870
H4176       H  0.70860361  0.94142316  0.97741774     0.43820
C4177       C  0.52164778  0.78771047  0.13396763    -0.05240
C4178       C  0.52137658  0.78923731  0.10268774    -0.32670
C4179       C  0.53227436  0.76653016  0.08530930     0.36580
C4180       C  0.55047961  0.74470211  0.09772290    -0.05600
C4181       C  0.55520381  0.74527272  0.12862974    -0.32570
C4182       C  0.54015498  0.76593853  0.14675621     0.36490
H4183       H  0.51120582  0.80738616  0.09088197     0.16860
O4184       O  0.52610657  0.76648413  0.05552817    -0.60060
H4185       H  0.56855175  0.72824458  0.13893785     0.16870
O4186       O  0.54299822  0.76389147  0.17674015    -0.60160
H4187       H  0.55877923  0.77801056  0.18159578     0.43870
H4188       H  0.50443763  0.76566491  0.05376975     0.43820
C4189       C  0.48638362  0.86443665  0.21394939    -0.05240
C4190       C  0.49590405  0.89282273  0.20552498    -0.32670
C4191       C  0.48905024  0.91819345  0.22216925     0.36580
C4192       C  0.47291436  0.91578072  0.24854763    -0.05600
C4193       C  0.46317744  0.88750669  0.25693442    -0.32570
C4194       C  0.46936332  0.86230529  0.23979864     0.36490
H4195       H  0.50739402  0.89559337  0.18488858     0.16860
O4196       O  0.49828646  0.94536406  0.21261967    -0.60060
H4197       H  0.45135397  0.88484551  0.27744511     0.16870
O4198       O  0.45804146  0.83563944  0.24817046    -0.60160
H4199       H  0.43811710  0.83506130  0.23926411     0.43870
H4200       H  0.51991155  0.94397087  0.21073761     0.43820
C4201       C  0.54673033  0.12953610  0.81450379    -0.05240
C4202       C  0.57096382  0.13032700  0.79519153    -0.32670
C4203       C  0.57481686  0.10877589  0.77290943     0.36580
C4204       C  0.55547716  0.08465255  0.77079707    -0.05600
C4205       C  0.53240368  0.08320598  0.79114885    -0.32570
C4206       C  0.52707208  0.10575251  0.81154706     0.36490
H4207       H  0.58762723  0.14693429  0.79820824     0.16860
O4208       O  0.59808234  0.11097090  0.75400700    -0.60060
H4209       H  0.51793721  0.06443361  0.79092112     0.16870
O4210       O  0.50349482  0.10338574  0.83016138    -0.60160
H4211       H  0.50720867  0.08544576  0.84221360     0.43870
H4212       H  0.59084987  0.12339969  0.73740726     0.43820
C4213       C  0.48174997  0.24220763  0.93350994    -0.05240
C4214       C  0.46868441  0.23007348  0.90802440    -0.32670
C4215       C  0.48418479  0.20945407  0.89050071     0.36580
C4216       C  0.51282266  0.20037951  0.89875088    -0.05600
C4217       C  0.52430462  0.21102873  0.92560876    -0.32570
C4218       C  0.50929238  0.23141401  0.94269606     0.36490
H4219       H  0.44733826  0.23794469  0.90072613     0.16860
O4220       O  0.47127062  0.19852453  0.86547030    -0.60060
H4221       H  0.54575876  0.20377784  0.93332790     0.16870
O4222       O  0.52264173  0.24216000  0.96763400    -0.60160
H4223       H  0.51816466  0.22773697  0.98345747     0.43870
H4224       H  0.45597434  0.18477962  0.87251840     0.43820
C4225       C  0.26489297  0.03910229  0.08996689    -0.05240
C4226       C  0.29185606  0.02924796  0.07937771    -0.32670
C4227       C  0.31416462  0.01943547  0.09868700     0.36580
C4228       C  0.30946206  0.01705048  0.12966065    -0.05600
C4229       C  0.28367416  0.03028416  0.14053791    -0.32570
C4230       C  0.26211309  0.04224861  0.12095499     0.36490
H4231       H  0.29521401  0.02767576  0.05579500     0.16860
O4232       O  0.34065339  0.01178096  0.08688573    -0.60060
H4233       H  0.27954361  0.03020498  0.16405184     0.16870
O4234       O  0.23789482  0.05595778  0.13236116    -0.60160
H4235       H  0.24277539  0.07720291  0.13237576     0.43870
H4236       H  0.33648588  0.99602706  0.07235651     0.43820
C4237       C  0.37653606  0.98470629  0.21867733    -0.05240
C4238       C  0.40398462  0.99688425  0.21154431    -0.32670
C4239       C  0.43000486  0.98788327  0.22637272     0.36580
C4240       C  0.42872882  0.96778618  0.25022834    -0.05600
C4241       C  0.40102323  0.95747477  0.25887729    -0.32570
C4242       C  0.37530334  0.96551537  0.24329231     0.36490
H4243       H  0.40581849  0.01061340  0.19199546     0.16860
O4244       O  0.45688946  0.99743343  0.21657583    -0.60060
H4245       H  0.39930143  0.94323796  0.27806141     0.16870
O4246       O  0.34908002  0.95312780  0.25115918    -0.60160
H4247       H  0.34969481  0.93288562  0.24316463     0.43870
H4248       H  0.45479585  0.01868875  0.21185824     0.43820
C4249       C  0.30115271  0.13355868  0.03007742    -0.05240
C4250       C  0.27850297  0.13625753  0.05110354    -0.32670
C4251       C  0.25862108  0.11306944  0.05667293     0.36580
C4252       C  0.26171848  0.08581853  0.04226463    -0.05600
C4253       C  0.28461502  0.08299899  0.02169422    -0.32570
C4254       C  0.30292444  0.10687264  0.01438574     0.36490
H4255       H  0.27731355  0.15586555  0.06451414     0.16860
O4256       O  0.23708852  0.11675439  0.07736072    -0.60060
H4257       H  0.28796211  0.06220388  0.01065909     0.16870
O4258       O  0.32451764  0.10286592  0.99381103    -0.60160
H4259       H  0.31551887  0.10909285  0.97478287     0.43870
H4260       H  0.22131560  0.12801381  0.06716112     0.43820
C4261       C  0.39354704  0.19396735  0.99578900    -0.05240
C4262       C  0.38108116  0.21669462  0.97835480    -0.32670
C4263       C  0.39889172  0.23871723  0.96529086     0.36580
C4264       C  0.42910198  0.24068711  0.97252796    -0.05600
C4265       C  0.44194678  0.21640412  0.98669687    -0.32570
C4266       C  0.42493861  0.19245134  0.99636914     0.36490
H4267       H  0.35752246  0.21788353  0.97526387     0.16860
O4268       O  0.38636699  0.25863625  0.94614941    -0.60060
H4269       H  0.46543590  0.21597653  0.99049397     0.16870
O4270       O  0.43935874  0.16705270  0.00474993    -0.60160
H4271       H  0.45371845  0.17272846  0.02025277     0.43870
H4272       H  0.39068028  0.25096235  0.92618893     0.43820
C4273       C  0.39053199  0.95225658  0.13328337    -0.05240
C4274       C  0.38996441  0.95731183  0.10284188    -0.32670
C4275       C  0.40507508  0.98130210  0.09158767     0.36580
C4276       C  0.42610765  0.99599473  0.10905784    -0.05600
C4277       C  0.43288435  0.98448857  0.13698991    -0.32570
C4278       C  0.41612110  0.96137599  0.14858654     0.36490
H4279       H  0.37296713  0.94753847  0.08928727     0.16860
O4280       O  0.39792878  0.99066724  0.06384269    -0.60060
H4281       H  0.45082417  0.99347587  0.14986311     0.16870
O4282       O  0.42353153  0.94920574  0.17544517    -0.60160
H4283       H  0.44436572  0.94303893  0.17411641     0.43870
H4284       H  0.38808079  0.00988125  0.06629323     0.43820
C4285       C  0.39231544  0.06135879  0.01208679    -0.05240
C4286       C  0.41538974  0.08063634  0.01825132    -0.32670
C4287       C  0.41202249  0.10291885  0.03892427     0.36580
C4288       C  0.38413098  0.10835419  0.05128279    -0.05600
C4289       C  0.36287147  0.08585280  0.04872954    -0.32570
C4290       C  0.36658563  0.06298996  0.02873105     0.36490
H4291       H  0.43663724  0.07741327  0.00816034     0.16860
O4292       O  0.43588276  0.11967684  0.04624296    -0.60060
H4293       H  0.34201251  0.08714952  0.05990200     0.16870
O4294       O  0.34409958  0.04345413  0.02424240    -0.60160
H4295       H  0.35150334  0.02403198  0.03093456     0.43870
H4296       H  0.44418994  0.11030880  0.06429135     0.43820
C4297       C  0.51231461  0.92287780  0.12545499    -0.05240
C4298       C  0.48146473  0.92372718  0.12624866    -0.32670
C4299       C  0.46506886  0.89797391  0.12716688     0.36580
C4300       C  0.47935704  0.87072648  0.12838976    -0.05600
C4301       C  0.51027893  0.86996918  0.12509992    -0.32570
C4302       C  0.52663197  0.89559325  0.12421049     0.36490
H4303       H  0.46999584  0.94433915  0.12394420     0.16860
O4304       O  0.43509625  0.89944276  0.12569463    -0.60060
H4305       H  0.52262514  0.84973390  0.12463025     0.16870
O4306       O  0.55667987  0.89373605  0.12238107    -0.60160
H4307       H  0.56081186  0.88802432  0.10170365     0.43870
H4308       H  0.42844060  0.90036574  0.14639315     0.43820
C4309       C  0.49182107  0.05080362  0.90185668    -0.05240
C4310       C  0.47893106  0.07872986  0.90335337    -0.32670
C4311       C  0.49636388  0.10388638  0.90307957     0.36580
C4312       C  0.52749666  0.10119696  0.90181470    -0.05600
C4313       C  0.54012032  0.07343826  0.90116538    -0.32570
C4314       C  0.52267493  0.04861303  0.90110177     0.36490
H4315       H  0.45530120  0.08108567  0.90497121     0.16860
O4316       O  0.48255660  0.13079551  0.90298970    -0.60060
H4317       H  0.56380299  0.07088588  0.90020838     0.16870
O4318       O  0.53628614  0.02207352  0.90273913    -0.60160
H4319       H  0.54856205  0.02281246  0.92090824     0.43870
H4320       H  0.47708012  0.13451719  0.88207875     0.43820
C4321       C  0.60881639  0.90040600  0.01916649    -0.05240
C4322       C  0.63517353  0.89184333  0.03206568    -0.32670
C4323       C  0.64987537  0.86735126  0.02136103     0.36580
C4324       C  0.63962363  0.85297603  0.99554954    -0.05600
C4325       C  0.61171508  0.85960368  0.98476327    -0.32570
C4326       C  0.59571205  0.88240506  0.99743918     0.36490
H4327       H  0.64466819  0.90436677  0.05002046     0.16860
O4328       O  0.67404738  0.85745648  0.03648885    -0.60060
H4329       H  0.60217666  0.84677196  0.96706716     0.16870
O4330       O  0.56697307  0.88600165  0.98936219    -0.60160
H4331       H  0.55564771  0.87466462  0.00414368     0.43870
H4332       H  0.66661184  0.84898534  0.05520002     0.43820
C4333       C  0.61795823  0.01133654  0.90510278    -0.05240
C4334       C  0.59404954  0.00531712  0.88622803    -0.32670
C4335       C  0.57642581  0.98041154  0.89035307     0.36580
C4336       C  0.57882870  0.96458823  0.91674763    -0.05600
C4337       C  0.60030627  0.97263912  0.93747983    -0.32570
C4338       C  0.61883486  0.99644250  0.93250607     0.36490
H4339       H  0.58927126  0.01959364  0.86776839     0.16860
O4340       O  0.55679119  0.97162645  0.86888609    -0.60060
H4341       H  0.60261315  0.96072662  0.95791686     0.16870
O4342       O  0.63801749  0.00448428  0.95442925    -0.60160
H4343       H  0.62897643  0.02204698  0.96366632     0.43870
H4344       H  0.54771540  0.98954537  0.86011619     0.43820
C4345       C  0.27505470  0.53601060  0.87895560    -0.05240
C4346       C  0.25824914  0.54178861  0.90425167    -0.32670
C4347       C  0.26388591  0.52694095  0.93116958     0.36580
C4348       C  0.28586632  0.50502140  0.93284203    -0.05600
C4349       C  0.30161908  0.49813648  0.90722646    -0.32570
C4350       C  0.29656851  0.51353353  0.88062444     0.36490
H4351       H  0.24257156  0.55983559  0.90391960     0.16860
O4352       O  0.24888059  0.53466668  0.95624234    -0.60060
H4353       H  0.31784453  0.48059679  0.90784745     0.16870
O4354       O  0.31346314  0.50723007  0.85645869    -0.60160
H4355       H  0.33291684  0.51605140  0.86057668     0.43870
H4356       H  0.22791382  0.53671288  0.95055646     0.43820
C4357       C  0.33519744  0.50992701  0.97742216    -0.05240
C4358       C  0.36344408  0.50173984  0.96820628    -0.32670
C4359       C  0.38789754  0.52001440  0.97305514     0.36580
C4360       C  0.38431865  0.54773963  0.98630522    -0.05600
C4361       C  0.35584665  0.55605093  0.99533282    -0.32570
C4362       C  0.33151884  0.53741023  0.99114825     0.36490
H4363       H  0.36675488  0.48030698  0.95833464     0.16860
O4364       O  0.41541686  0.51064041  0.96510044    -0.60060
H4365       H  0.35221300  0.57784947  0.00422952     0.16870
O4366       O  0.30408937  0.54641347  0.99985719    -0.60160
H4367       H  0.30539097  0.54925766  0.02150089     0.43870
H4368       H  0.41321645  0.50072228  0.94576606     0.43820
C4369       C  0.39756071  0.47759688  0.04882668    -0.05240
C4370       C  0.37227322  0.49341914  0.05713462    -0.32670
C4371       C  0.34467616  0.48748671  0.04424680     0.36580
C4372       C  0.34197256  0.46617105  0.02185743    -0.05600
C4373       C  0.36724201  0.45088522  0.01313142    -0.32570
C4374       C  0.39473211  0.45647710  0.02620321     0.36490
H4375       H  0.37358081  0.50924226  0.07489349     0.16860
O4376       O  0.32048080  0.50292016  0.05340996    -0.60060
H4377       H  0.36593438  0.43551586  0.99497171     0.16870
O4378       O  0.41910291  0.44167882  0.01634398    -0.60160
H4379       H  0.41388217  0.42050211  0.01630642     0.43870
H4380       H  0.31189328  0.49077011  0.06938995     0.43820
C4381       C  0.29694182  0.41846634  0.02794355    -0.05240
C4382       C  0.31620426  0.39433516  0.02492680    -0.32670
C4383       C  0.31457428  0.36993182  0.04419288     0.36580
C4384       C  0.29262631  0.36875129  0.06595778    -0.05600
C4385       C  0.27270013  0.39245385  0.06797661    -0.32570
C4386       C  0.27554560  0.41750640  0.05016886     0.36490
H4387       H  0.33233711  0.39431577  0.00747778     0.16860
O4388       O  0.33542142  0.34811547  0.04264683    -0.60060
H4389       H  0.25666922  0.39279606  0.08557350     0.16870
O4390       O  0.25717189  0.44108356  0.05455170    -0.60160
H4391       H  0.26724936  0.45337771  0.06947508     0.43870
H4392       H  0.32678399  0.33299217  0.02955754     0.43820
C4393       C  0.96702016  0.50242792  0.33417423    -0.05240
C4394       C  0.98040066  0.52529627  0.31871040    -0.32670
C4395       C  0.99551740  0.54804079  0.33290055     0.36580
C4396       C  0.99889188  0.54841367  0.36438610    -0.05600
C4397       C  0.98285994  0.52676983  0.38011483    -0.32570
C4398       C  0.96691164  0.50429379  0.36537031     0.36490
H4399       H  0.98260633  0.52370155  0.29507232     0.16860
O4400       O  0.00697911  0.56942667  0.31496149    -0.60060
H4401       H  0.98407694  0.52592471  0.40395511     0.16870
O4402       O  0.95392829  0.48255685  0.38173513    -0.60160
H4403       H  0.93292122  0.48825711  0.38270467     0.43870
H4404       H  0.02193210  0.55948892  0.30259028     0.43820
C4405       C  0.86508814  0.53107514  0.28859800    -0.05240
C4406       C  0.89052057  0.53744277  0.27255225    -0.32670
C4407       C  0.91609652  0.52040794  0.27604559     0.36580
C4408       C  0.91544584  0.49440888  0.29339033    -0.05600
C4409       C  0.88912008  0.48656572  0.30716614    -0.32570
C4410       C  0.86447515  0.50515733  0.30569311     0.36490
H4411       H  0.89167279  0.55787654  0.26011338     0.16860
O4412       O  0.94182398  0.52993073  0.26355452    -0.60060
H4413       H  0.88807378  0.46648891  0.32016727     0.16870
O4414       O  0.84069329  0.49904197  0.32287499    -0.60160
H4415       H  0.84656693  0.50528384  0.34299434     0.43870
H4416       H  0.93696053  0.53808903  0.24373791     0.43820
C4417       C  0.04411781  0.46625045  0.39230839    -0.05240
C4418       C  0.02621575  0.44104083  0.39285812    -0.32670
C4419       C  0.00629104  0.43525784  0.36946945     0.36580
C4420       C  0.00631804  0.45293809  0.34364765    -0.05600
C4421       C  0.02537877  0.47698492  0.34273479    -0.32570
C4422       C  0.04124169  0.48556728  0.36773578     0.36490
H4423       H  0.02853227  0.42525724  0.41074786     0.16860
O4424       O  0.98756160  0.41185693  0.37171916    -0.60060
H4425       H  0.02652464  0.49045906  0.32299963     0.16870
O4426       O  0.05748037  0.51102939  0.36661636    -0.60160
H4427       H  0.07130801  0.50876678  0.34994000     0.43870
H4428       H  0.96919334  0.42015054  0.37993570     0.43820
C4429       C  0.05076234  0.36370949  0.27933874    -0.05240
C4430       C  0.05038674  0.39147658  0.26548395    -0.32670
C4431       C  0.03076771  0.41353179  0.27403963     0.36580
C4432       C  0.00964313  0.40777483  0.29583152    -0.05600
C4433       C  0.00993305  0.38016077  0.31001234    -0.32570
C4434       C  0.03085958  0.35857695  0.30242988     0.36490
H4435       H  0.06638240  0.39656397  0.24877637     0.16860
O4436       O  0.03143786  0.44032757  0.25991504    -0.60060
H4437       H  0.99354159  0.37508540  0.32644996     0.16870
O4438       O  0.03225069  0.33288622  0.31825729    -0.60160
H4439       H  0.04603650  0.33710009  0.33470949     0.43870
H4440       H  0.04292244  0.45328045  0.27315217     0.43820
C4441       C  0.87669458  0.70000674  0.98791629    -0.05240
C4442       C  0.90229417  0.69712652  0.00525975    -0.32670
C4443       C  0.92673903  0.71513195  0.00061544     0.36580
C4444       C  0.92525649  0.73804505  0.97965579    -0.05600
C4445       C  0.89945319  0.74178504  0.96283639    -0.32570
C4446       C  0.87555352  0.72254813  0.96640587     0.36490
H4447       H  0.90450633  0.67910476  0.02074368     0.16860
O4448       O  0.95281743  0.70910417  0.01502691    -0.60060
H4449       H  0.89808981  0.75931848  0.94655653     0.16870
O4450       O  0.85168885  0.72512369  0.94795333    -0.60160
H4451       H  0.85659529  0.71305649  0.93046789     0.43870
H4452       H  0.94798321  0.70475924  0.03591583     0.43820
C4453       C  0.80491577  0.62216371  0.02656228    -0.05240
C4454       C  0.77671862  0.63280304  0.03319156    -0.32670
C4455       C  0.75581516  0.61393559  0.04638031     0.36580
C4456       C  0.76202510  0.58331711  0.04969429    -0.05600
C4457       C  0.79120805  0.57431150  0.04613559    -0.32570
C4458       C  0.81280066  0.59393187  0.03758072     0.36490
H4459       H  0.77019553  0.65476120  0.02626123     0.16860
O4460       O  0.72824371  0.62466952  0.05200541    -0.60060
H4461       H  0.79756035  0.55153979  0.04696996     0.16870
O4462       O  0.84106166  0.58356194  0.03589846    -0.60160
H4463       H  0.84903933  0.58505094  0.05624385     0.43870
H4464       H  0.72765491  0.62733341  0.07369380     0.43820
C4465       C  0.98895616  0.69524078  0.88703537    -0.05240
C4466       C  0.97666152  0.72259217  0.87901569    -0.32670
C4467       C  0.96488661  0.74137158  0.90076942     0.36580
C4468       C  0.96822875  0.73417606  0.93106354    -0.05600
C4469       C  0.97575116  0.70504068  0.93834013    -0.32570
C4470       C  0.98469329  0.68527396  0.91638504     0.36490
H4471       H  0.97855614  0.73053475  0.85651721     0.16860
O4472       O  0.95332081  0.76810545  0.89245419    -0.60060
H4473       H  0.97735573  0.69831994  0.96126259     0.16870
O4474       O  0.99346971  0.65748979  0.92458844    -0.60160
H4475       H  0.97679506  0.64457270  0.91933083     0.43870
H4476       H  0.93177149  0.76578905  0.89409205     0.43820
C4477       C  0.04298689  0.58285038  0.76693686    -0.05240
C4478       C  0.02006919  0.58373404  0.78768542    -0.32670
C4479       C  0.01577327  0.60822882  0.80604015     0.36580
C4480       C  0.03434828  0.63291002  0.80382193    -0.05600
C4481       C  0.05666371  0.63235647  0.78229539    -0.32570
C4482       C  0.06120350  0.60760277  0.76429917     0.36490
H4483       H  0.00561726  0.56499597  0.78994537     0.16860
O4484       O  0.99475886  0.60681209  0.82755105    -0.60060
H4485       H  0.07154457  0.65079801  0.78033467     0.16870
O4486       O  0.08314105  0.60806261  0.74371378    -0.60160
H4487       H  0.10103482  0.60143655  0.75446725     0.43870
H4488       H  0.97606433  0.61199475  0.81741162     0.43820
C4489       C  0.13367647  0.51507175  0.81229280    -0.05240
C4490       C  0.10559293  0.52444288  0.82136651    -0.32670
C4491       C  0.08401409  0.53348863  0.80086544     0.36580
C4492       C  0.09110786  0.53641504  0.77071304    -0.05600
C4493       C  0.12107571  0.53343724  0.76299248    -0.32570
C4494       C  0.14186295  0.52129870  0.78300568     0.36490
H4495       H  0.09871644  0.52023232  0.84374209     0.16860
O4496       O  0.05529831  0.53432392  0.80979256    -0.60060
H4497       H  0.12752827  0.53681260  0.74027678     0.16870
O4498       O  0.16848770  0.51189177  0.77252342    -0.60160
H4499       H  0.18345915  0.52261881  0.78408655     0.43870
H4500       H  0.05447858  0.54913382  0.82578961     0.43820
C4501       C  0.20169745  0.47155418  0.89312689    -0.05240
C4502       C  0.22710546  0.45462388  0.88826871    -0.32670
C4503       C  0.24745002  0.44920362  0.91118452     0.36580
C4504       C  0.24263761  0.46065596  0.93961773    -0.05600
C4505       C  0.21663182  0.47652371  0.94478155    -0.32570
C4506       C  0.19643194  0.48218955  0.92182857     0.36490
H4507       H  0.23082731  0.44499559  0.86677530     0.16860
O4508       O  0.27250841  0.43346702  0.90536440    -0.60060
H4509       H  0.21261831  0.48569730  0.96641140     0.16870
O4510       O  0.17113828  0.49750686  0.92781949    -0.60160
H4511       H  0.17542406  0.51821067  0.92236834     0.43870
H4512       H  0.26819039  0.41304124  0.91177544     0.43820
C4513       C  0.76794985  0.52683221  0.08603074    -0.05240
C4514       C  0.78420987  0.50400362  0.07294123    -0.32670
C4515       C  0.80916001  0.49192208  0.08670148     0.36580
C4516       C  0.81824251  0.50190472  0.11468991    -0.05600
C4517       C  0.80191990  0.52461065  0.12812878    -0.32570
C4518       C  0.77712932  0.53726032  0.11384177     0.36490
H4519       H  0.77744787  0.49559556  0.05164335     0.16860
O4520       O  0.82394617  0.46941411  0.07307728    -0.60060
H4521       H  0.80860889  0.53277713  0.14954318     0.16870
O4522       O  0.76147609  0.55897763  0.12766245    -0.60160
H4523       H  0.76935701  0.57770506  0.11972275     0.43870
H4524       H  0.83565327  0.47899183  0.05737153     0.43820
C4525       C  0.88071730  0.46212602  0.19960279    -0.05240
C4526       C  0.87787681  0.43671683  0.21737388    -0.32670
C4527       C  0.89682798  0.43201742  0.24190355     0.36580
C4528       C  0.92016566  0.45166021  0.24724641    -0.05600
C4529       C  0.92349263  0.47575787  0.22836378    -0.32570
C4530       C  0.90258583  0.48272626  0.20703254     0.36490
H4531       H  0.86194081  0.42007174  0.21155047     0.16860
O4532       O  0.89291123  0.40799955  0.25990383    -0.60060
H4533       H  0.94275053  0.48935031  0.23024458     0.16870
O4534       O  0.90648018  0.50765582  0.19023945    -0.60160
H4535       H  0.89269571  0.52238122  0.19849828     0.43870
H4536       H  0.90107304  0.39107914  0.24884940     0.43820
C4537       C  0.96679870  0.40543011  0.24975525    -0.05240
C4538       C  0.96570010  0.37486250  0.25556905    -0.32670
C4539       C  0.97934050  0.35431814  0.23665527     0.36580
C4540       C  0.99351679  0.36399029  0.21080101    -0.05600
C4541       C  0.99097344  0.39402289  0.20309912    -0.32570
C4542       C  0.97819849  0.41463272  0.22230743     0.36490
H4543       H  0.95681731  0.36716348  0.27633665     0.16860
O4544       O  0.98099240  0.32528831  0.24506191    -0.60060
H4545       H  0.00169848  0.40209830  0.18336737     0.16870
O4546       O  0.98074068  0.44405819  0.21586174    -0.60160
H4547       H  0.96903545  0.44727194  0.19757712     0.43870
H4548       H  0.99955745  0.32341662  0.25646687     0.43820
C4549       C  0.21880972  0.36057918  0.99231683    -0.05240
C4550       C  0.20755349  0.38775691  0.00213611    -0.32670
C4551       C  0.22352373  0.41405380  0.99849324     0.36580
C4552       C  0.25141604  0.41336329  0.98522550    -0.05600
C4553       C  0.26333363  0.38600263  0.97711425    -0.32570
C4554       C  0.24744363  0.35986430  0.98071751     0.36490
H4555       H  0.18522223  0.38903291  0.01017796     0.16860
O4556       O  0.21134131  0.44046400  0.00676779    -0.60060
H4557       H  0.28518207  0.38494925  0.96782832     0.16870
O4558       O  0.25942899  0.33369528  0.97152887    -0.60160
H4559       H  0.25963182  0.33478415  0.94965777     0.43870
H4560       H  0.20603593  0.43824168  0.02785454     0.43820
C4561       C  0.08701566  0.40604103  0.11776061    -0.05240
C4562       C  0.09449964  0.41288514  0.14698286    -0.32670
C4563       C  0.09474757  0.39079573  0.16864345     0.36580
C4564       C  0.08673978  0.36200509  0.16086106    -0.05600
C4565       C  0.08605733  0.35461814  0.13055357    -0.32570
C4566       C  0.08573527  0.37652827  0.10903090     0.36490
H4567       H  0.09736475  0.43562795  0.15349089     0.16860
O4568       O  0.09987889  0.39773527  0.19764446    -0.60060
H4569       H  0.08097309  0.33255989  0.12326782     0.16870
O4570       O  0.07913147  0.36910992  0.08042039    -0.60160
H4571       H  0.09825439  0.36421735  0.07129121     0.43870
H4572       H  0.08697848  0.41474870  0.20225453     0.43820
C4573       C  0.11222424  0.40227501  0.95502731    -0.05240
C4574       C  0.10249998  0.38256018  0.93330798    -0.32670
C4575       C  0.12297847  0.36449787  0.91929482     0.36580
C4576       C  0.15185214  0.36372832  0.92986200    -0.05600
C4577       C  0.16219261  0.38998427  0.94266780    -0.32570
C4578       C  0.14238224  0.40841426  0.95697568     0.36490
H4579       H  0.07934147  0.38009716  0.92836080     0.16860
O4580       O  0.11426773  0.34526875  0.89811025    -0.60060
H4581       H  0.18538099  0.39341088  0.94642015     0.16870
O4582       O  0.15268533  0.43114265  0.97387357    -0.60160
H4583       H  0.15120801  0.44881629  0.96100556     0.43870
H4584       H  0.12182265  0.35346632  0.87932352     0.43820
C4585       C  0.04572092  0.46158713  0.89445794    -0.05240
C4586       C  0.05351406  0.43357760  0.88359780    -0.32670
C4587       C  0.08158658  0.42837984  0.87233566     0.36580
C4588       C  0.10274448  0.45048270  0.87429540    -0.05600
C4589       C  0.09520408  0.47795782  0.88613924    -0.32570
C4590       C  0.06650926  0.48424680  0.89398048     0.36490
H4591       H  0.03765233  0.41587590  0.88345085     0.16860
O4592       O  0.08806639  0.40194048  0.85946455    -0.60060
H4593       H  0.11131084  0.49543479  0.88706872     0.16870
O4594       O  0.05922711  0.51262620  0.90091164    -0.60160
H4595       H  0.05147453  0.52121228  0.88225214     0.43870
H4596       H  0.08216081  0.40441914  0.83848984     0.43820
C4597       C  0.92781255  0.49114660  0.12057000    -0.05240
C4598       C  0.95319314  0.47359102  0.12495775    -0.32670
C4599       C  0.98093488  0.48621720  0.12909199     0.36580
C4600       C  0.98456258  0.51691852  0.12614704    -0.05600
C4601       C  0.95931941  0.53448784  0.12200176    -0.32570
C4602       C  0.93137822  0.52206559  0.11925148     0.36490
H4603       H  0.95146582  0.44985696  0.12648030     0.16860
O4604       O  0.00414978  0.46824023  0.13648982    -0.60060
H4605       H  0.96109194  0.55823547  0.12079178     0.16870
O4606       O  0.90760660  0.54067521  0.11730253    -0.60160
H4607       H  0.90726482  0.54776772  0.09654874     0.43870
H4608       H  0.00553737  0.46902458  0.15831970     0.43820
C4609       C  0.93343366  0.58895429  0.03231974    -0.05240
C4610       C  0.92609413  0.57363585  0.00622100    -0.32670
C4611       C  0.90337566  0.58333569  0.98776953     0.36580
C4612       C  0.88730794  0.60821451  0.99563579    -0.05600
C4613       C  0.89190913  0.62069904  0.02386088    -0.32570
C4614       C  0.91498975  0.61142785  0.04196874     0.36490
H4615       H  0.93896761  0.55536774  0.99860926     0.16860
O4616       O  0.89839342  0.56960224  0.96134106    -0.60060
H4617       H  0.87819574  0.63841556  0.03165675     0.16870
O4618       O  0.92103584  0.62636258  0.06750323    -0.60160
H4619       H  0.91070238  0.61531551  0.08322607     0.43870
H4620       H  0.88318616  0.55464768  0.96556294     0.43820
C4621       C  0.03978942  0.60176032  0.92580203    -0.05240
C4622       C  0.05231090  0.59245075  0.89921546    -0.32670
C4623       C  0.07272566  0.60999891  0.88484797     0.36580
C4624       C  0.07593472  0.63950450  0.89404792    -0.05600
C4625       C  0.07200734  0.64430942  0.92449896    -0.32570
C4626       C  0.05232311  0.62636884  0.94009559     0.36490
H4627       H  0.04604739  0.57186205  0.88919126     0.16860
O4628       O  0.08478477  0.60003935  0.85909145    -0.60060
H4629       H  0.07853241  0.66506817  0.93415610     0.16870
O4630       O  0.04484961  0.63359762  0.96848225    -0.60160
H4631       H  0.03267908  0.65169728  0.96684942     0.43870
H4632       H  0.10270716  0.58908099  0.86521920     0.43820
C4633       C  0.29749695  0.00436798  0.42153781    -0.05240
C4634       C  0.30894696  0.99802299  0.39356794    -0.32670
C4635       C  0.30411843  0.01721331  0.36942484     0.36580
C4636       C  0.28710494  0.04314926  0.37264496    -0.05600
C4637       C  0.27459933  0.04877680  0.40032966    -0.32570
C4638       C  0.27993862  0.02997929  0.42464650     0.36490
H4639       H  0.32198908  0.97826507  0.39053444     0.16860
O4640       O  0.31770786  0.01143429  0.34314807    -0.60060
H4641       H  0.26253459  0.06910160  0.40376084     0.16870
O4642       O  0.26847621  0.03704584  0.45171906    -0.60160
H4643       H  0.27677541  0.05646896  0.45701027     0.43870
H4644       H  0.30279146  0.00110525  0.33107750     0.43820
C4645       C  0.35064355  0.00364409  0.46433743    -0.05240
C4646       C  0.34693996  0.03410877  0.45999277    -0.32670
C4647       C  0.36870744  0.05431651  0.46845508     0.36580
C4648       C  0.39421023  0.04464930  0.48385445    -0.05600
C4649       C  0.40034220  0.01427225  0.48344535    -0.32570
C4650       C  0.37942164  0.99405047  0.47233050     0.36490
H4651       H  0.32629602  0.04311527  0.45291297     0.16860
O4652       O  0.36381961  0.08386420  0.46374503    -0.60060
H4653       H  0.42014781  0.00593404  0.49396998     0.16870
O4654       O  0.38609991  0.96458117  0.47272592    -0.60160
H4655       H  0.39168273  0.95989247  0.45216334     0.43870
H4656       H  0.34530670  0.08882566  0.47404871     0.43820
C4657       C  0.29751155  0.92281561  0.52273930    -0.05240
C4658       C  0.30984464  0.89450233  0.52026801    -0.32670
C4659       C  0.30298647  0.87186857  0.54043905     0.36580
C4660       C  0.28394299  0.87705776  0.56434858    -0.05600
C4661       C  0.27221574  0.90567018  0.56741292    -0.32570
C4662       C  0.27851086  0.92821706  0.54669990     0.36490
H4663       H  0.32402641  0.88956939  0.50180567     0.16860
O4664       O  0.31613082  0.84485065  0.53731811    -0.60060
H4665       H  0.25876531  0.91075323  0.58637474     0.16870
O4666       O  0.26561718  0.95535994  0.54981713    -0.60160
H4667       H  0.27990191  0.96703900  0.56140919     0.43870
H4668       H  0.30189172  0.83298290  0.52587201     0.43820
C4669       C  0.37765703  0.00786963  0.55931120    -0.05240
C4670       C  0.35267714  0.02174874  0.54684107    -0.32670
C4671       C  0.33250459  0.00661402  0.52921462     0.36580
C4672       C  0.33795847  0.97732429  0.52073430    -0.05600
C4673       C  0.36296631  0.96299694  0.53265038    -0.32570
C4674       C  0.38245875  0.97790429  0.55204947     0.36490
H4675       H  0.34702267  0.04395779  0.55335336     0.16860
O4676       O  0.30696411  0.02049553  0.52039898    -0.60060
H4677       H  0.36785588  0.94055836  0.52626948     0.16870
O4678       O  0.40570229  0.96279452  0.56432720    -0.60160
H4679       H  0.39704026  0.94984642  0.57960984     0.43870
H4680       H  0.31288201  0.03872784  0.50994852     0.43820
C4681       C  0.97438374  0.85371949  0.71321680    -0.05240
C4682       C  0.94900942  0.85678166  0.73086360    -0.32670
C4683       C  0.94617692  0.87948102  0.75196776     0.36580
C4684       C  0.96802277  0.90118618  0.75467058    -0.05600
C4685       C  0.99294572  0.89844621  0.73648813    -0.32570
C4686       C  0.99708298  0.87420591  0.71777303     0.36490
H4687       H  0.93012432  0.84315546  0.72645601     0.16860
O4688       O  0.92173033  0.88054611  0.76947346    -0.60060
H4689       H  0.00956536  0.91534595  0.73683452     0.16870
O4690       O  0.02232083  0.87260099  0.70157486    -0.60160
H4691       H  0.03528196  0.85877482  0.71262606     0.43870
H4692       H  0.90527714  0.88606521  0.75608175     0.43820
C4693       C  0.04150788  0.75334520  0.58322780    -0.05240
C4694       C  0.02808547  0.77787858  0.57030322    -0.32670
C4695       C  0.01327094  0.79924565  0.58701026     0.36580
C4696       C  0.00949626  0.79600693  0.61835269    -0.05600
C4697       C  0.02526993  0.77233964  0.63155439    -0.32570
C4698       C  0.04157351  0.75178300  0.61447454     0.36490
H4699       H  0.02731630  0.77972466  0.54652214     0.16860
O4700       O  0.00389334  0.82374668  0.57187222    -0.60060
H4701       H  0.02447954  0.76902685  0.65518041     0.16870
O4702       O  0.05556435  0.72881442  0.62851279    -0.60160
H4703       H  0.07636355  0.73492493  0.63014166     0.43870
H4704       H  0.98841051  0.81689040  0.55805543     0.43820
C4705       C  0.88311849  0.97297228  0.70925499    -0.05240
C4706       C  0.91233195  0.96529636  0.70208798    -0.32670
C4707       C  0.93226609  0.95546029  0.72367459     0.36580
C4708       C  0.92244230  0.94903365  0.75232205    -0.05600
C4709       C  0.89186250  0.95025760  0.75752517    -0.32570
C4710       C  0.87242177  0.96332811  0.73669294     0.36490
H4711       H  0.92109775  0.97130761  0.68084750     0.16860
O4712       O  0.96175283  0.95655982  0.71775417    -0.60060
H4713       H  0.88358349  0.94419508  0.77903414     0.16870
O4714       O  0.84413200  0.96961050  0.74472454    -0.60160
H4715       H  0.83244932  0.95262633  0.73776693     0.43870
H4716       H  0.96519890  0.94130687  0.70263530     0.43820
C4717       C  0.76435364  0.03397930  0.59514917    -0.05240
C4718       C  0.78901037  0.01662225  0.58835083    -0.32670
C4719       C  0.81031827  0.00982378  0.60958894     0.36580
C4720       C  0.80779159  0.02090512  0.63834307    -0.05600
C4721       C  0.78335249  0.03852806  0.64539859    -0.32570
C4722       C  0.76154121  0.04482228  0.62406012     0.36490
H4723       H  0.79095386  0.00677112  0.56680899     0.16860
O4724       O  0.83449312  0.99361263  0.60159717    -0.60060
H4725       H  0.78175959  0.04825952  0.66711750     0.16870
O4726       O  0.73769019  0.06164811  0.63158662    -0.60160
H4727       H  0.74275029  0.08199336  0.62548733     0.43870
H4728       H  0.82991950  0.97304733  0.60728818     0.43820
C4729       C  0.76805189  0.07999762  0.54978252    -0.05240
C4730       C  0.76268322  0.10986055  0.55606480    -0.32670
C4731       C  0.78476928  0.13107881  0.55242277     0.36580
C4732       C  0.81272022  0.12252727  0.54258384    -0.05600
C4733       C  0.81793011  0.09282655  0.53612541    -0.32570
C4734       C  0.79603746  0.07162865  0.53947961     0.36490
H4735       H  0.74110525  0.11675752  0.56331892     0.16860
O4736       O  0.77914243  0.15986187  0.55948029    -0.60060
H4737       H  0.83923711  0.08585284  0.52838177     0.16870
O4738       O  0.80122473  0.04345181  0.52983753    -0.60160
H4739       H  0.82068462  0.03743696  0.53786301     0.43870
H4740       H  0.77273844  0.16929319  0.54070403     0.43820
C4741       C  0.09443884  0.74854183  0.54071577    -0.05240
C4742       C  0.12222374  0.74237242  0.55312829    -0.32670
C4743       C  0.14700144  0.75993996  0.54691323     0.36580
C4744       C  0.14479621  0.78524725  0.52855569    -0.05600
C4745       C  0.11705890  0.79127359  0.51583343    -0.32570
C4746       C  0.09233094  0.77311293  0.52128777     0.36490
H4747       H  0.12495365  0.72313984  0.56716479     0.16860
O4748       O  0.17311813  0.75326420  0.56062252    -0.60060
H4749       H  0.11408942  0.81118789  0.50282947     0.16870
O4750       O  0.06640721  0.77901782  0.50675721    -0.60160
H4751       H  0.06101271  0.79951977  0.51199359     0.43870
H4752       H  0.18419628  0.74137894  0.54611936     0.43820
C4753       C  0.21177404  0.87555845  0.49911036    -0.05240
C4754       C  0.20535491  0.90612119  0.49866687    -0.32670
C4755       C  0.22574175  0.92724323  0.48922122     0.36580
C4756       C  0.25300817  0.91844907  0.47780595    -0.05600
C4757       C  0.25830073  0.88786026  0.47481262    -0.32570
C4758       C  0.23823285  0.86658477  0.48569721     0.36490
H4759       H  0.18524153  0.91430458  0.50815019     0.16860
O4760       O  0.22017284  0.95647349  0.49453946    -0.60060
H4761       H  0.27910509  0.88043870  0.46602205     0.16870
O4762       O  0.24603868  0.83740260  0.48556238    -0.60160
H4763       H  0.23888886  0.82987852  0.46633259     0.43870
H4764       H  0.20137359  0.96108018  0.48430915     0.43820
C4765       C  0.20507391  0.97481230  0.38860488    -0.05240
C4766       C  0.22602079  0.95260789  0.38325525    -0.32670
C4767       C  0.24931962  0.94741599  0.40331643     0.36580
C4768       C  0.25114086  0.96364302  0.42966900    -0.05600
C4769       C  0.22987656  0.98536708  0.43504845    -0.32570
C4770       C  0.20735963  0.99126907  0.41475130     0.36490
H4771       H  0.22374028  0.93871026  0.36402738     0.16860
O4772       O  0.26969211  0.92594418  0.39743862    -0.60060
H4773       H  0.23078859  0.99799469  0.45520403     0.16870
O4774       O  0.18664378  0.01225008  0.42137839    -0.60160
H4775       H  0.17196427  0.00196164  0.43373275     0.43870
H4776       H  0.28422978  0.93548324  0.38436267     0.43820
C4777       C  0.97782486  0.02901048  0.40389587    -0.05240
C4778       C  0.96407872  0.05649170  0.40145055    -0.32670
C4779       C  0.98053008  0.08189182  0.39760733     0.36580
C4780       C  0.01159325  0.08020750  0.39706806    -0.05600
C4781       C  0.02507190  0.05224181  0.39679335    -0.32570
C4782       C  0.00824231  0.02668114  0.39927328     0.36490
H4783       H  0.94061644  0.05850895  0.40495022     0.16860
O4784       O  0.96586215  0.10825255  0.39486261    -0.60060
H4785       H  0.04870459  0.05016671  0.39504962     0.16870
O4786       O  0.02202303  0.99976408  0.40013411    -0.60160
H4787       H  0.02405107  0.99388647  0.37919795     0.43870
H4788       H  0.96342090  0.11146087  0.37331582     0.43820
C4789       C  0.05454662  0.91257613  0.41837784    -0.05240
C4790       C  0.08173316  0.91203145  0.43322765    -0.32670
C4791       C  0.10567681  0.92733113  0.42182769     0.36580
C4792       C  0.10307144  0.94161133  0.39418782    -0.05600
C4793       C  0.07694418  0.93851392  0.37779907    -0.32570
C4794       C  0.05262283  0.92482766  0.38985955     0.36490
H4795       H  0.08347124  0.90299631  0.45537234     0.16860
O4796       O  0.13031081  0.93030348  0.43910658    -0.60060
H4797       H  0.07454071  0.94869176  0.35629546     0.16870
O4798       O  0.02636336  0.92618966  0.37480717    -0.60160
H4799       H  0.02028064  0.90550842  0.37187260     0.43870
H4800       H  0.12701854  0.94849943  0.45065648     0.43820
C4801       C  0.95798422  0.10409836  0.51673571    -0.05240
C4802       C  0.96443658  0.12265387  0.54068809    -0.32670
C4803       C  0.94195798  0.13501566  0.55761979     0.36580
C4804       C  0.91246090  0.12840986  0.55101944    -0.05600
C4805       C  0.90636808  0.10880315  0.52777748    -0.32570
C4806       C  0.92863931  0.09701997  0.51057522     0.36490
H4807       H  0.98704026  0.12782710  0.54606442     0.16860
O4808       O  0.94896168  0.15525165  0.57890753    -0.60060
H4809       H  0.88405710  0.10438859  0.52112739     0.16870
O4810       O  0.92138911  0.07807842  0.48821359    -0.60160
H4811       H  0.91745507  0.09085783  0.47078957     0.43870
H4812       H  0.94114613  0.14726426  0.59766221     0.43820
C4813       C  0.07142406  0.86810439  0.55396872    -0.05240
C4814       C  0.08979375  0.87835532  0.53176156    -0.32670
C4815       C  0.12016679  0.87777335  0.53554929     0.36580
C4816       C  0.13278434  0.86651403  0.56216461    -0.05600
C4817       C  0.11399832  0.85756431  0.58485099    -0.32570
C4818       C  0.08376683  0.85681176  0.58028454     0.36490
H4819       H  0.08071409  0.88716132  0.51140134     0.16860
O4820       O  0.13709329  0.88617009  0.51209944    -0.60060
H4821       H  0.12298510  0.84805518  0.60499878     0.16870
O4822       O  0.06642065  0.84401926  0.60130782    -0.60160
H4823       H  0.07022884  0.82256556  0.59978869     0.43870
H4824       H  0.13390762  0.90770357  0.50995069     0.43820
C4825       C  0.03269581  0.93114073  0.64326393    -0.05240
C4826       C  0.00348200  0.93830285  0.64896690    -0.32670
C4827       C  0.98110790  0.91754524  0.64481295     0.36580
C4828       C  0.98844039  0.88819681  0.63779304    -0.05600
C4829       C  0.01856743  0.88042089  0.63781332    -0.32570
C4830       C  0.04040195  0.90146858  0.64106319     0.36490
H4831       H  0.99837863  0.96047081  0.65473201     0.16860
O4832       O  0.95233391  0.92614183  0.64752918    -0.60060
H4833       H  0.02581415  0.85808153  0.63507469     0.16870
O4834       O  0.06932278  0.89338547  0.63845801    -0.60160
H4835       H  0.07552720  0.88731063  0.65861365     0.43870
H4836       H  0.94492286  0.92855968  0.62703471     0.43820
C4837       C  0.96766594  0.05643418  0.62726235    -0.05240
C4838       C  0.94829064  0.08076673  0.62803080    -0.32670
C4839       C  0.91962043  0.07741882  0.63953710     0.36580
C4840       C  0.90951357  0.04893800  0.64635498    -0.05600
C4841       C  0.92772039  0.02506579  0.64113459    -0.32570
C4842       C  0.95724712  0.02890769  0.63671066     0.36490
H4843       H  0.95549955  0.10208979  0.62028189     0.16860
O4844       O  0.90169056  0.10140819  0.64293500    -0.60060
H4845       H  0.91951144  0.00295295  0.64409514     0.16870
O4846       O  0.97585107  0.00550139  0.64144360    -0.60160
H4847       H  0.96452528  0.98737266  0.63761552     0.43870
H4848       H  0.91304228  0.11528393  0.65530473     0.43820
C4849       C  0.92770429  0.23185993  0.47194024    -0.05240
C4850       C  0.89740213  0.23916224  0.47068019    -0.32670
C4851       C  0.87638287  0.22105914  0.48456090     0.36580
C4852       C  0.88510021  0.19360166  0.49612995    -0.05600
C4853       C  0.91341967  0.18326978  0.48929848    -0.32570
C4854       C  0.93516570  0.20263919  0.47972658     0.36490
H4855       H  0.89076454  0.26098060  0.46343897     0.16860
O4856       O  0.84896223  0.23218385  0.49031221    -0.60060
H4857       H  0.92035501  0.16172670  0.49703657     0.16870
O4858       O  0.96380303  0.19420173  0.48354444    -0.60160
H4859       H  0.96668276  0.17703657  0.47039318     0.43870
H4860       H  0.83510885  0.21962021  0.47915969     0.43820
C4861       C  0.98514550  0.23145632  0.43633347    -0.05240
C4862       C  0.97421439  0.22626701  0.40763746    -0.32670
C4863       C  0.98675187  0.20417080  0.38952535     0.36580
C4864       C  0.01124750  0.18760195  0.39959736    -0.05600
C4865       C  0.02251663  0.19367619  0.42784039    -0.32570
C4866       C  0.00936937  0.21449468  0.44629116     0.36490
H4867       H  0.95603705  0.23939915  0.39926526     0.16860
O4868       O  0.97452046  0.19858150  0.36242337    -0.60060
H4869       H  0.04097762  0.18098284  0.43635576     0.16870
O4870       O  0.02028766  0.21827012  0.47437354    -0.60160
H4871       H  0.02026713  0.19859611  0.48399117     0.43870
H4872       H  0.95991576  0.18287087  0.36600378     0.43820
C4873       C  0.92195962  0.27571988  0.51770033    -0.05240
C4874       C  0.89663365  0.29312680  0.51384102    -0.32670
C4875       C  0.87178284  0.28872248  0.53153399     0.36580
C4876       C  0.87264501  0.26874463  0.55542219    -0.05600
C4877       C  0.89707052  0.24978500  0.55774264    -0.32570
C4878       C  0.92154074  0.25301918  0.53913360     0.36490
H4879       H  0.89576116  0.30943373  0.49629377     0.16860
O4880       O  0.84689757  0.30482962  0.52603173    -0.60060
H4881       H  0.89813545  0.23365896  0.57532663     0.16870
O4882       O  0.94494121  0.23389890  0.54177563    -0.60160
H4883       H  0.95094776  0.23406339  0.56285872     0.43870
H4884       H  0.83462060  0.29222839  0.51318524     0.43820
C4885       C  0.96674885  0.32361215  0.52429274    -0.05240
C4886       C  0.96644019  0.35434697  0.51870561    -0.32670
C4887       C  0.97933671  0.37443719  0.53873746     0.36580
C4888       C  0.99149162  0.36422869  0.56561174    -0.05600
C4889       C  0.98675244  0.33442382  0.57324747    -0.32570
C4890       C  0.97559393  0.31417477  0.55273339     0.36490
H4891       H  0.95969909  0.36234327  0.49711964     0.16860
O4892       O  0.98325295  0.40311994  0.53012746    -0.60060
H4893       H  0.99561617  0.32584688  0.59384071     0.16870
O4894       O  0.97708314  0.28477405  0.55954240    -0.60160
H4895       H  0.99727887  0.27848193  0.55442419     0.43870
H4896       H  0.96589399  0.41384045  0.53775695     0.43820
C4897       C  0.07063226  0.27238255  0.39849580    -0.05240
C4898       C  0.07179572  0.26643180  0.42926354    -0.32670
C4899       C  0.04860153  0.27285837  0.44820993     0.36580
C4900       C  0.02147301  0.28223622  0.43667761    -0.05600
C4901       C  0.01899835  0.28644127  0.40587300    -0.32570
C4902       C  0.04322101  0.28177546  0.38691250     0.36490
H4903       H  0.09072478  0.25609744  0.43942078     0.16860
O4904       O  0.05190947  0.26726330  0.47788689    -0.60060
H4905       H  0.99796826  0.29273787  0.39640740     0.16870
O4906       O  0.03953221  0.28606780  0.35722943    -0.60160
H4907       H  0.02868241  0.26855368  0.35020590     0.43870
H4908       H  0.06903997  0.27899060  0.48442095     0.43820
C4909       C  0.05770158  0.36884281  0.49541456    -0.05240
C4910       C  0.03779066  0.37316973  0.47191336    -0.32670
C4911       C  0.01606893  0.35209445  0.46569259     0.36580
C4912       C  0.01395894  0.32648335  0.48322612    -0.05600
C4913       C  0.03288672  0.32300915  0.50750446    -0.32570
C4914       C  0.05491329  0.34346443  0.51326622     0.36490
H4915       H  0.04054227  0.39171098  0.45704862     0.16860
O4916       O  0.99706857  0.35662309  0.44249499    -0.60060
H4917       H  0.03150097  0.30348747  0.52125717     0.16870
O4918       O  0.07603418  0.33680153  0.53409366    -0.60160
H4919       H  0.08710944  0.31976223  0.52617242     0.43870
H4920       H  0.00783866  0.34989831  0.42479834     0.43820
C4921       C  0.48908613  0.36829289  0.71165229    -0.05240
C4922       C  0.48004360  0.39714401  0.70408443    -0.32670
C4923       C  0.47324561  0.41782858  0.72581229     0.36580
C4924       C  0.46670617  0.40862719  0.75480888    -0.05600
C4925       C  0.46760631  0.37773113  0.76022171    -0.32570
C4926       C  0.48065836  0.35794748  0.73973204     0.36490
H4927       H  0.48408841  0.40550077  0.68202535     0.16860
O4928       O  0.47880963  0.44675468  0.71958312    -0.60060
H4929       H  0.46127251  0.36940834  0.78164599     0.16870
O4930       O  0.48592526  0.32926480  0.74790988    -0.60160
H4931       H  0.50747254  0.32760709  0.75057411     0.43870
H4932       H  0.46828610  0.45138558  0.70085194     0.43820
C4933       C  0.53528062  0.29187407  0.63817317    -0.05240
C4934       C  0.53263602  0.29664825  0.60738213    -0.32670
C4935       C  0.54271700  0.27605556  0.58670856     0.36580
C4936       C  0.55452465  0.24889522  0.59622205    -0.05600
C4937       C  0.55634402  0.24348018  0.62701886    -0.32570
C4938       C  0.54689653  0.26460953  0.64783858     0.36490
H4939       H  0.52431263  0.31759278  0.59920092     0.16860
O4940       O  0.54087741  0.28254656  0.55707109    -0.60060
H4941       H  0.56441272  0.22235337  0.63489378     0.16870
O4942       O  0.54861494  0.25796170  0.67740119    -0.60160
H4943       H  0.55962159  0.27423925  0.68672362     0.43870
H4944       H  0.52030590  0.28851887  0.55294945     0.43820
C4945       C  0.49433803  0.70842066  0.37134822    -0.05240
C4946       C  0.51060091  0.70442400  0.39752357    -0.32670
C4947       C  0.50267502  0.71855205  0.42424108     0.36580
C4948       C  0.47887985  0.73878199  0.42516505    -0.05600
C4949       C  0.46373738  0.74432676  0.39849239    -0.32570
C4950       C  0.47085804  0.72911591  0.37215695     0.36490
H4951       H  0.52765338  0.68768364  0.39805105     0.16860
O4952       O  0.51717638  0.71171161  0.45022266    -0.60060
H4953       H  0.44635197  0.76069423  0.39799094     0.16870
O4954       O  0.45397257  0.73375647  0.34735427    -0.60160
H4955       H  0.43512426  0.72366421  0.35123045     0.43870
H4956       H  0.53572981  0.70133873  0.44541787     0.43820
C4957       C  0.53594608  0.61994135  0.30834862    -0.05240
C4958       C  0.53922588  0.58930444  0.31371023    -0.32670
C4959       C  0.54642461  0.56959575  0.29131555     0.36580
C4960       C  0.55631319  0.57989775  0.26385749    -0.05600
C4961       C  0.55874544  0.61077130  0.26017513    -0.32570
C4962       C  0.54750201  0.63068360  0.28149292     0.36490
H4963       H  0.53336100  0.57956857  0.33460877     0.16860
O4964       O  0.54085143  0.54031523  0.29586561    -0.60060
H4965       H  0.56719822  0.61942226  0.23966159     0.16870
O4966       O  0.54590905  0.66010347  0.27474294    -0.60160
H4967       H  0.56552040  0.66801999  0.27985575     0.43870
H4968       H  0.52046311  0.53732229  0.28876581     0.43820
C4969       C  0.71045433  0.46624161  0.38722276    -0.05240
C4970       C  0.72085596  0.43703281  0.38800347    -0.32670
C4971       C  0.74579641  0.42914848  0.40526685     0.36580
C4972       C  0.75793702  0.44963233  0.42529291    -0.05600
C4973       C  0.74452515  0.47743067  0.42698714    -0.32570
C4974       C  0.72413010  0.48693642  0.40572569     0.36490
H4975       H  0.70909351  0.42039761  0.37606169     0.16860
O4976       O  0.75715759  0.40122566  0.40335342    -0.60060
H4977       H  0.75118443  0.49251445  0.44407505     0.16870
O4978       O  0.71643867  0.51632001  0.40335399    -0.60160
H4979       H  0.71979756  0.52576349  0.42272276     0.43870
H4980       H  0.77285217  0.40255942  0.38835299     0.43820
C4981       C  0.63668274  0.50844380  0.31149626    -0.05240
C4982       C  0.64402485  0.53238959  0.29307281    -0.32670
C4983       C  0.62494055  0.54162803  0.26997976     0.36580
C4984       C  0.59770198  0.52754864  0.26571152    -0.05600
C4985       C  0.59046254  0.50411923  0.28472426    -0.32570
C4986       C  0.60977322  0.49415702  0.30668484     0.36490
H4987       H  0.66410628  0.54442674  0.29713237     0.16860
O4988       O  0.63322170  0.56413027  0.25158646    -0.60060
H4989       H  0.56957971  0.49310666  0.28225399     0.16870
O4990       O  0.60125541  0.47143742  0.32475628    -0.60160
H4991       H  0.61046777  0.45357736  0.31627717     0.43870
H4992       H  0.62594481  0.58233430  0.26112920     0.43820
C4993       C  0.38825533  0.48935200  0.71039982    -0.05240
C4994       C  0.41873945  0.49516032  0.71286418    -0.32670
C4995       C  0.43552930  0.48521099  0.73667058     0.36580
C4996       C  0.42533355  0.46243487  0.75479462    -0.05600
C4997       C  0.39640149  0.45229358  0.74984069    -0.32570
C4998       C  0.37749315  0.46649343  0.72884864     0.36490
H4999       H  0.43037280  0.50862487  0.69722252     0.16860
O5000       O  0.46273896  0.49735864  0.74156139    -0.60060
H5001       H  0.38767687  0.43510665  0.76388086     0.16870
O5002       O  0.34853401  0.45865659  0.72769051    -0.60160
H5003       H  0.34795597  0.44099777  0.71492714     0.43870
H5004       H  0.45916022  0.51845918  0.74580875     0.43820
C5005       C  0.30095665  0.52358781  0.64025427    -0.05240
C5006       C  0.27571687  0.54106896  0.64413204    -0.32670
C5007       C  0.25770949  0.54967655  0.62019618     0.36580
C5008       C  0.26449112  0.54087757  0.59121251    -0.05600
C5009       C  0.29077514  0.52511262  0.58697185    -0.32570
C5010       C  0.30776585  0.51504146  0.61117028     0.36490
H5011       H  0.27031156  0.54868383  0.66580463     0.16860
O5012       O  0.23234537  0.56508152  0.62560146    -0.60060
H5013       H  0.29648983  0.51777095  0.56509178     0.16870
O5014       O  0.33156526  0.49723862  0.60606725    -0.60160
H5015       H  0.32583694  0.47742665  0.61320318     0.43870
H5016       H  0.23724761  0.58595708  0.62156493     0.43820
C5017       C  0.37722116  0.69797689  0.47534541    -0.05240
C5018       C  0.40154870  0.69446660  0.49413592    -0.32670
C5019       C  0.42686058  0.71239720  0.49139915     0.36580
C5020       C  0.42738297  0.73616719  0.47091590    -0.05600
C5021       C  0.40221164  0.74078031  0.45330288    -0.32570
C5022       C  0.37784444  0.72159066  0.45479055     0.36490
H5023       H  0.40143483  0.67653137  0.50996006     0.16860
O5024       O  0.45174350  0.70605376  0.50779457    -0.60060
H5025       H  0.40150410  0.75928027  0.43810753     0.16870
O5026       O  0.35459091  0.72597552  0.43585623    -0.60160
H5027       H  0.36111269  0.71807529  0.41660201     0.43870
H5028       H  0.44556776  0.69649541  0.52648085     0.43820
C5029       C  0.30482794  0.61356296  0.50778112    -0.05240
C5030       C  0.30406734  0.58257206  0.50419645    -0.32670
C5031       C  0.28206441  0.56497094  0.51636751     0.36580
C5032       C  0.26147436  0.57711327  0.53565443    -0.05600
C5033       C  0.26545755  0.60677766  0.54423094    -0.32570
C5034       C  0.28600753  0.62527831  0.52958376     0.36490
H5035       H  0.31975875  0.57148788  0.49055837     0.16860
O5036       O  0.27976199  0.53605542  0.50786024    -0.60060
H5037       H  0.25154694  0.61613936  0.56105264     0.16870
O5038       O  0.28621146  0.65479283  0.53567093    -0.60160
H5039       H  0.29778148  0.65658884  0.55418087     0.43870
H5040       H  0.29850210  0.52642529  0.51374072     0.43820
C5041       C  0.70957651  0.37661706  0.50140706    -0.05240
C5042       C  0.73045813  0.36014400  0.48531594    -0.32670
C5043       C  0.75447401  0.37408157  0.47130944     0.36580
C5044       C  0.75704628  0.40507041  0.47170676    -0.05600
C5045       C  0.73456949  0.42153063  0.48443118    -0.32570
C5046       C  0.71302816  0.40800100  0.50132482     0.36490
H5047       H  0.72925289  0.33638664  0.48472809     0.16860
O5048       O  0.77633022  0.35724047  0.45922521    -0.60060
H5049       H  0.73679396  0.44524912  0.48598915     0.16870
O5050       O  0.69850327  0.42599765  0.52069357    -0.60160
H5051       H  0.70938617  0.42413317  0.53964331     0.43870
H5052       H  0.76888862  0.35168019  0.43943126     0.43820
C5053       C  0.64618033  0.29284647  0.54471111    -0.05240
C5054       C  0.62346765  0.29050727  0.52369715    -0.32670
C5055       C  0.60090338  0.26989837  0.52708169     0.36580
C5056       C  0.60143180  0.25002093  0.55106290    -0.05600
C5057       C  0.62414785  0.25213726  0.57211429    -0.32570
C5058       C  0.64611919  0.27365122  0.56929037     0.36490
H5059       H  0.62184859  0.30648839  0.50586712     0.16860
O5060       O  0.57744923  0.27015426  0.50784584    -0.60060
H5061       H  0.62487088  0.23698735  0.59067160     0.16870
O5062       O  0.66691251  0.27645595  0.59110785    -0.60160
H5063       H  0.65760428  0.28892428  0.60636514     0.43870
H5064       H  0.58573647  0.26821621  0.48785852     0.43820
C5065       C  0.50504992  0.41091490  0.57775243    -0.05240
C5066       C  0.48795663  0.39362602  0.59619827    -0.32670
C5067       C  0.50043691  0.38056351  0.62120666     0.36580
C5068       C  0.53042466  0.38561898  0.62853396    -0.05600
C5069       C  0.54722423  0.40358127  0.61048304    -0.32570
C5070       C  0.53463696  0.41663037  0.58551465     0.36490
H5071       H  0.46514789  0.38946978  0.59074241     0.16860
O5072       O  0.48315527  0.36246875  0.63793579    -0.60060
H5073       H  0.57012676  0.40751211  0.61572169     0.16870
O5074       O  0.55137317  0.43541300  0.56911525    -0.60160
H5075       H  0.55457249  0.45289853  0.58170861     0.43870
H5076       H  0.48162226  0.34387212  0.62667609     0.43820
C5077       C  0.59259189  0.43328732  0.51864283    -0.05240
C5078       C  0.58105286  0.40470225  0.51862061    -0.32670
C5079       C  0.59268981  0.38333220  0.53752064     0.36580
C5080       C  0.61728832  0.39040849  0.55493746    -0.05600
C5081       C  0.62375310  0.42008938  0.56011396    -0.32570
C5082       C  0.61248555  0.44154092  0.54099884     0.36490
H5083       H  0.56414937  0.39856692  0.50290557     0.16860
O5084       O  0.58410703  0.35462111  0.53421197    -0.60060
H5085       H  0.64185296  0.42582971  0.57459221     0.16870
O5086       O  0.62153955  0.47015986  0.54385813    -0.60160
H5087       H  0.64047126  0.47120975  0.53322533     0.43870
H5088       H  0.57159099  0.35041725  0.55154752     0.43820
C5089       C  0.38979340  0.50875543  0.57353207    -0.05240
C5090       C  0.37412838  0.53547104  0.57426136    -0.32670
C5091       C  0.37151534  0.55158993  0.60029345     0.36580
C5092       C  0.38294033  0.54001391  0.62698395    -0.05600
C5093       C  0.39993057  0.51376655  0.62569281    -0.32570
C5094       C  0.40292766  0.49805444  0.59953218     0.36490
H5095       H  0.36462152  0.54449786  0.55416448     0.16860
O5096       O  0.35803494  0.57873983  0.59942077    -0.60060
H5097       H  0.41006304  0.50428695  0.64521048     0.16870
O5098       O  0.41973363  0.47289558  0.59949842    -0.60160
H5099       H  0.40612154  0.45684675  0.60500790     0.43870
H5100       H  0.33779786  0.57532967  0.59201958     0.43820
C5101       C  0.40804661  0.59743656  0.49881134    -0.05240
C5102       C  0.38606985  0.57733028  0.49062017    -0.32670
C5103       C  0.37437417  0.57835403  0.46191307     0.36580
C5104       C  0.37910266  0.60398135  0.44480910    -0.05600
C5105       C  0.40731214  0.61565271  0.44820998    -0.32570
C5106       C  0.42011248  0.61493858  0.47633243     0.36490
H5107       H  0.37804983  0.56106459  0.50600255     0.16860
O5108       O  0.35466338  0.55753211  0.45300813    -0.60060
H5109       H  0.41531674  0.63135570  0.43230666     0.16870
O5110       O  0.44350878  0.63239254  0.48189446    -0.60160
H5111       H  0.43702682  0.64688663  0.49638633     0.43870
H5112       H  0.36683497  0.54057394  0.44668257     0.43820
C5113       C  0.51294957  0.64161409  0.45271038    -0.05240
C5114       C  0.52827670  0.62552801  0.43148954    -0.32670
C5115       C  0.51580393  0.61988270  0.40398431     0.36580
C5116       C  0.48779679  0.63190220  0.39645424    -0.05600
C5117       C  0.47294307  0.64812215  0.41801354    -0.32570
C5118       C  0.48626979  0.65478551  0.44490474     0.36490
H5119       H  0.54914958  0.61522725  0.43687478     0.16860
O5120       O  0.53098397  0.60175395  0.38533545    -0.60060
H5121       H  0.45187725  0.65807986  0.41314385     0.16870
O5122       O  0.47356005  0.67459940  0.46374552    -0.60160
H5123       H  0.46019684  0.68733179  0.45196267     0.43870
H5124       H  0.54842476  0.61312248  0.37906749     0.43820
C5125       C  0.62349211  0.55948644  0.47050669    -0.05240
C5126       C  0.60516438  0.56147244  0.44562875    -0.32670
C5127       C  0.61065875  0.54442364  0.42059033     0.36580
C5128       C  0.63625057  0.52678780  0.41950764    -0.05600
C5129       C  0.65587674  0.52734776  0.44377331    -0.32570
C5130       C  0.64924436  0.54276838  0.46927555     0.36490
H5131       H  0.58500782  0.57401596  0.44676167     0.16860
O5132       O  0.58940012  0.54269232  0.39905967    -0.60060
H5133       H  0.67599158  0.51472933  0.44394477     0.16870
O5134       O  0.66727121  0.54011512  0.49355861    -0.60160
H5135       H  0.66191247  0.52111890  0.50294588     0.43870
H5136       H  0.58809322  0.56264934  0.39012074     0.43820
C5137       C  0.00994093  0.08364338  0.22211475    -0.05240
C5138       C  0.98845231  0.07663458  0.24320901    -0.32670
C5139       C  0.96811365  0.09743180  0.25310841     0.36580
C5140       C  0.96778653  0.12609134  0.24130497    -0.05600
C5141       C  0.98882715  0.13341327  0.21985224    -0.32570
C5142       C  0.01016830  0.11264027  0.21075672     0.36490
H5143       H  0.98812017  0.05513682  0.25348859     0.16860
O5144       O  0.94797695  0.08938547  0.27406503    -0.60060
H5145       H  0.98812435  0.15497563  0.20956429     0.16870
O5146       O  0.03081640  0.12070301  0.19041145    -0.60160
H5147       H  0.04709676  0.12925860  0.20210928     0.43870
H5148       H  0.93490127  0.07502285  0.26424131     0.43820
C5149       C  0.00605717  0.03476883  0.17754939    -0.05240
C5150       C  0.98038281  0.02857473  0.19286237    -0.32670
C5151       C  0.95421013  0.02207121  0.17831988     0.36580
C5152       C  0.95448604  0.01354212  0.14818948    -0.05600
C5153       C  0.98004380  0.02053193  0.13210189    -0.32570
C5154       C  0.00479539  0.03310451  0.14633598     0.36490
H5155       H  0.98039257  0.02792432  0.21649466     0.16860
O5156       O  0.92835913  0.02623124  0.19332658    -0.60060
H5157       H  0.98105672  0.01636417  0.10864979     0.16870
O5158       O  0.02781142  0.04280268  0.12963301    -0.60160
H5159       H  0.02498317  0.06440842  0.12797370     0.43870
H5160       H  0.93008384  0.01485296  0.21204147     0.43820
C5161       C  0.10547603  0.99600111  0.21432373    -0.05240
C5162       C  0.09985021  0.96647425  0.22202541    -0.32670
C5163       C  0.12282797  0.94647740  0.22845227     0.36580
C5164       C  0.15229535  0.95597311  0.22867819    -0.05600
C5165       C  0.15807625  0.98478600  0.21874799    -0.32570
C5166       C  0.13510231  0.00442177  0.21115370     0.36490
H5167       H  0.07764894  0.95923157  0.22532650     0.16860
O5168       O  0.11597307  0.91876770  0.23835443    -0.60060
H5169       H  0.18039045  0.99292037  0.21931772     0.16870
O5170       O  0.14184371  0.03272256  0.20310994    -0.60160
H5171       H  0.14153845  0.03275294  0.18122503     0.43870
H5172       H  0.11700452  0.90607403  0.22066444     0.43820
C5173       C  0.02835830  0.95097258  0.13301738    -0.05240
C5174       C  0.02449488  0.94755226  0.16371768    -0.32670
C5175       C  0.03492047  0.96847766  0.18374865     0.36580
C5176       C  0.05291213  0.99163117  0.17400175    -0.05600
C5177       C  0.06134196  0.99200122  0.14404765    -0.32570
C5178       C  0.04824726  0.97268140  0.12336209     0.36490
H5179       H  0.01015882  0.93053749  0.17191450     0.16860
O5180       O  0.02564173  0.96733998  0.21252681    -0.60060
H5181       H  0.07524859  0.00957580  0.13608571     0.16870
O5182       O  0.05204062  0.97789846  0.09378825    -0.60160
H5183       H  0.06218203  0.96022472  0.08611866     0.43870
H5184       H  0.00480928  0.97372011  0.21205711     0.43820
C5185       C  0.09605932  0.03314170  0.26573759    -0.05240
C5186       C  0.12426618  0.04315290  0.27342919    -0.32670
C5187       C  0.13753205  0.03485825  0.30066213     0.36580
C5188       C  0.12240522  0.01639128  0.32087955    -0.05600
C5189       C  0.09325002  0.00850829  0.31302260    -0.32570
C5190       C  0.08065967  0.01598629  0.28606652     0.36490
H5191       H  0.13612389  0.05714997  0.25824762     0.16860
O5192       O  0.16509228  0.04505015  0.30694807    -0.60060
H5193       H  0.08009067  0.99404788  0.32633840     0.16870
O5194       O  0.05271562  0.00639050  0.27992317    -0.60160
H5195       H  0.05475329  0.99162485  0.26407679     0.43870
H5196       H  0.16191873  0.06332167  0.31839976     0.43820
C5197       C  0.05598534  0.08226557  0.26492502    -0.05240
C5198       C  0.03551430  0.07419847  0.28627378    -0.32670
C5199       C  0.02727833  0.09335892  0.30851559     0.36580
C5200       C  0.04408462  0.11877831  0.31452071    -0.05600
C5201       C  0.06617455  0.12651850  0.29425838    -0.32570
C5202       C  0.07137080  0.10895571  0.26890285     0.36490
H5203       H  0.02449716  0.05327504  0.28488181     0.16860
O5204       O  0.00454085  0.08524733  0.32654417    -0.60060
H5205       H  0.07988758  0.14544379  0.29849945     0.16870
O5206       O  0.09187855  0.11762830  0.24867542    -0.60160
H5207       H  0.11082737  0.10978959  0.25629351     0.43870
H5208       H  0.98824108  0.09896968  0.32154224     0.43820
C5209       C  0.08714349  0.21323029  0.99440381    -0.05240
C5210       C  0.11492405  0.20033212  0.99983588    -0.32670
C5211       C  0.13911761  0.20618097  0.98140692     0.36580
C5212       C  0.13661356  0.22655167  0.95792577    -0.05600
C5213       C  0.10945681  0.24107436  0.95411674    -0.32570
C5214       C  0.08467784  0.23374068  0.97106369     0.36490
H5215       H  0.11812729  0.18612017  0.01884014     0.16860
O5216       O  0.16487793  0.19105645  0.98588579    -0.60060
H5217       H  0.10685776  0.25679975  0.93643623     0.16870
O5218       O  0.05783791  0.24628149  0.96450456    -0.60160
H5219       H  0.06100954  0.26782011  0.96306886     0.43870
H5220       H  0.17691832  0.20394807  0.99867647     0.43820
C5221       C  0.04024299  0.16468372  0.99587852    -0.05240
C5222       C  0.01525817  0.16098087  0.97779616    -0.32670
C5223       C  0.01061412  0.13490969  0.96191024     0.36580
C5224       C  0.03306702  0.11356292  0.95987150    -0.05600
C5225       C  0.05835581  0.11726567  0.97749643    -0.32570
C5226       C  0.06134846  0.14173339  0.99634569     0.36490
H5227       H  0.99857897  0.17803713  0.97686269     0.16860
O5228       O  0.98509884  0.13186193  0.94600891    -0.60060
H5229       H  0.07618498  0.10144587  0.97607746     0.16870
O5230       O  0.08498482  0.14285786  0.01511572    -0.60160
H5231       H  0.07838149  0.13329357  0.03361704     0.43870
H5232       H  0.97140847  0.12169836  0.95953234     0.43820
C5233       C  0.94729006  0.12791195  0.02405998    -0.05240
C5234       C  0.97423157  0.11879128  0.03668558    -0.32670
C5235       C  0.99642711  0.13928322  0.04391698     0.36580
C5236       C  0.99246212  0.16971352  0.03814974    -0.05600
C5237       C  0.96529690  0.17887566  0.02614858    -0.32570
C5238       C  0.94310204  0.15847454  0.01899873     0.36490
H5239       H  0.97796536  0.09564216  0.04135004     0.16860
O5240       O  0.02237884  0.12917653  0.05575150    -0.60060
H5241       H  0.96190283  0.20186706  0.02058701     0.21670
O5242       O  0.91766932  0.16868409  0.00609264    -0.60160
H5243       H  0.92064685  0.16636094  0.98456516     0.43870
H5244       H  0.02089904  0.13294550  0.07722965     0.43820
C5245       C  0.99897300  0.21318106  0.08745539    -0.05240
C5246       C  0.01013110  0.20128936  0.11388331    -0.32670
C5247       C  0.99684532  0.20728144  0.14103996     0.36580
C5248       C  0.97021313  0.22327352  0.14211687    -0.05600
C5249       C  0.95911594  0.23549447  0.11562257    -0.32570
C5250       C  0.97340406  0.23076404  0.08843599     0.36490
H5251       H  0.03039280  0.18865974  0.11363953     0.16860
O5252       O  0.00922408  0.19634525  0.16661062    -0.60060
H5253       H  0.93807844  0.24676564  0.11561621     0.16870
O5254       O  0.96170728  0.24205679  0.06266785    -0.60160
H5255       H  0.95521000  0.26244113  0.06688734     0.43870
H5256       H  0.01016765  0.17467456  0.16420229     0.43820
C5257       C  0.08453974  0.26034421  0.03566387    -0.05240
C5258       C  0.07584326  0.28592702  0.02029679    -0.32670
C5259       C  0.09673000  0.30508766  0.00795915     0.36580
C5260       C  0.12717683  0.29872183  0.01045027    -0.05600
C5261       C  0.13575261  0.27519364  0.02903971    -0.32570
C5262       C  0.11472683  0.25639813  0.04188401     0.36490
H5263       H  0.05275870  0.28980488  0.01574411     0.16860
O5264       O  0.08696944  0.32914471  0.99219399    -0.60060
H5265       H  0.15885159  0.27012434  0.03203522     0.16870
O5266       O  0.12406288  0.23264451  0.05829393    -0.60160
H5267       H  0.12204229  0.23884618  0.07913310     0.43870
H5268       H  0.08950224  0.34611639  0.00562520     0.43820
C5269       C  0.04345661  0.25597700  0.08678696    -0.05240
C5270       C  0.05804266  0.24604441  0.11238002    -0.32670
C5271       C  0.05324269  0.25943442  0.13981848     0.36580
C5272       C  0.03466399  0.28434091  0.14203347    -0.05600
C5273       C  0.02121557  0.29519874  0.11604928    -0.32570
C5274       C  0.02524457  0.28107413  0.08862805     0.36490
H5275       H  0.07161444  0.22639431  0.11146460     0.16860
O5276       O  0.06644887  0.24780167  0.16465399    -0.60060
H5277       H  0.00844280  0.31538171  0.11679167     0.16870
O5278       O  0.01220560  0.29222054  0.06344426    -0.60160
H5279       H  0.99186036  0.29778383  0.06870115     0.43870
H5280       H  0.08786385  0.25022184  0.16175372     0.43820
loop_ 
_geom_bond_atom_site_label_1 
_geom_bond_atom_site_label_2 
_geom_bond_distance 
_geom_bond_site_symmetry_2 
_ccdc_geom_bond_type 
C1            C2   1.427       .  A
C1            C6   1.427       .  A
C1         C5245   1.496   1_455  S
C2            C3   1.417       .  A
C2         C5269   1.501       .  S
C3            C4   1.432       .  A
C3         C5257   1.512       .  S
C4            C5   1.445       .  A
C4         C5209   1.508   1_554  S
C5            C6   1.438       .  A
C5         C5221   1.514   1_554  S
C6         C5236   1.521   1_455  S
C7            C8   1.424       .  A
C7           C12   1.434       .  A
C7         C5185   1.496       .  S
C8            C9   1.427       .  A
C8         C5197   1.514       .  S
C9           C10   1.441       .  A
C9         C5137   1.515       .  S
C10          C11   1.441       .  A
C10        C5149   1.515       .  S
C11          C12   1.433       .  A
C11        C5176   1.511   1_545  S
C12        C5161   1.518   1_545  S
O13         Mg15   2.177       .  S
O13         Mg21   2.140       .  S
O13          C48   1.240       .  S
C14          O27   1.243       .  S
C14          O51   1.278       .  A
C14          H53   1.081       .  S
Mg15         O44   2.170       .  S
Mg15         O59   2.276       .  S
Mg15         O55   2.302       .  S
Mg15         O26   2.324       .  S
O16         Mg58   2.154       .  S
O16         Mg41   2.114       .  S
O16          C37   1.235       .  S
O17          C48   1.277       .  A
O17         Mg41   2.331       .  S
C18        C5077   1.456       .  S
C18          O20   1.259       .  A
C18          O32   1.250       .  A
O19          C47   1.264       .  A
O19         Mg21   2.271       .  S
O20         Mg52   2.268       .  S
Mg21         O27   2.130       .  S
Mg21         O35   2.243       .  S
Mg21         O23   2.211       .  S
C22        C5065   1.464       .  S
C22          O60   1.253       .  A
C22          O28   1.271       .  A
O23          C30   1.268       .  A
H24          C37   1.081       .  S
C25          O39   1.243       .  S
C25          O40   1.283       .  A
C25          H50   1.081       .  S
O26          C49   1.276       .  A
O27         Mg41   2.173       .  S
O28         Mg58   2.342       .  S
C29        C5089   1.466       .  S
C29          O42   1.266       .  A
C29          O34   1.248       .  A
C30        C5101   1.487       .  S
C30          O57   1.251       .  A
Mg31         O38   2.106       .  S
Mg31         O39   2.089       .  S
Mg31         O32   2.208       .  S
Mg31         O33   2.325       .  S
Mg31         O60   2.189       .  S
O33          C37   1.270       .  A
O34         Mg41   2.229       .  S
O35          C54   1.263       .  A
O36          C56   1.256       .  A
O36         Mg52   2.245       .  S
O38         Mg52   2.118       .  S
O38          C49   1.240       .  S
O39         Mg58   2.160       .  S
O40         Mg52   2.369       .  S
Mg41         O57   2.283       .  S
O42         Mg58   2.333       .  S
H43          C48   1.081       .  S
O44         Mg52   2.081       .  S
O44          C47   1.233       .  S
H45          C47   1.080       .  S
H46          C49   1.081       .  S
O51         Mg58   2.335       .  S
C54        C5113   1.470       .  S
C54          O59   1.265       .  A
O55          C56   1.264       .  A
C56        C5125   1.453       .  S
C61          C62   1.398       .  A
C61          C66   1.431       .  A
C61        C5053   1.480       .  S
C62          C63   1.380       .  A
C62          H67   1.086       .  S
C63          C64   1.393       .  A
C63        C5080   1.459       .  S
C64          C65   1.394       .  A
C64          H68   1.080       .  S
C65          C66   1.429       .  A
C65        C5041   1.525       .  S
C66          H69   1.081       .  S
C70          C71   1.405       .  A
C70          C75   1.441       .  A
C70        C5017   1.510       .  S
C71          C72   1.401       .  A
C71          H76   1.084       .  S
C72          C73   1.392       .  A
C72        C5104   1.516       .  S
C73          C74   1.411       .  A
C73          H77   1.075       .  S
C74          C75   1.440       .  A
C74        C5029   1.534       .  S
C75          H78   1.081       .  S
C79          C80   1.396       .  A
C79          C84   1.445       .  A
C79        C5005   1.495       .  S
C80          C81   1.382       .  A
C80          H85   1.082       .  S
C81          C82   1.385       .  A
C81        C5092   1.503       .  S
C82          C83   1.416       .  A
C82          H86   1.069       .  S
C83          C84   1.447       .  A
C83        C4993   1.536       .  S
C84          H87   1.080       .  S
C88          C89   1.400       .  A
C88          C93   1.422       .  A
C88        C4981   1.487       .  S
C89          C90   1.400       .  A
C89          H94   1.080       .  S
C90          C91   1.398       .  A
C90        C5128   1.489       .  S
C91          C92   1.397       .  A
C91          H95   1.084       .  S
C92          C93   1.420       .  A
C92        C4969   1.494       .  S
C93          H96   1.083       .  S
C97          C98   1.393       .  A
C97         C102   1.449       .  A
C97        C4945   1.512       .  S
C98          C99   1.389       .  A
C98         H103   1.082       .  S
C99         C100   1.378       .  A
C99        C5116   1.496       .  S
C100        C101   1.415       .  A
C100        H104   1.079       .  S
C101        C102   1.450       .  A
C101       C4957   1.527       .  S
C102        H105   1.081       .  S
C106        C107   1.401       .  A
C106        C111   1.446       .  A
C106       C4933   1.506       .  S
C107        C108   1.374       .  A
C107        H112   1.086       .  S
C108        C109   1.375       .  A
C108       C5068   1.472       .  S
C109        C110   1.409       .  A
C109        H113   1.083       .  S
C110        C111   1.443       .  A
C110       C4921   1.523       .  S
C111        H114   1.082       .  S
C115        C116   1.426       .  A
C115        C120   1.428       .  A
C115       C4900   1.508   1_655  S
C116        C117   1.426       .  A
C116       C4912   1.495   1_655  S
C117        C118   1.430       .  A
C117       C4885   1.524       .  S
C118        C119   1.442       .  A
C118       C4873   1.502       .  S
C119        C120   1.436       .  A
C119       C4849   1.517       .  S
C120       C4861   1.512       .  S
O121       Mg123   2.136       .  S
O121       Mg129   2.158   1_655  S
O121        C156   1.238       .  S
C122        O135   1.243       .  S
C122        O159   1.278       .  A
C122        H161   1.081       .  S
Mg123       O152   2.174   1_655  S
Mg123       O167   2.248   1_655  S
Mg123       O163   2.314       .  S
Mg123       O134   2.337       .  S
O124       Mg166   2.178   1_565  S
O124       Mg149   2.109       .  S
O124        C145   1.233   1_455  S
O125        C156   1.272       .  A
O125       Mg149   2.300   1_655  S
C126       C4801   1.468       .  S
C126        O128   1.266       .  A
C126        O140   1.251   1_655  A
O127        C155   1.269       .  A
O127       Mg129   2.306       .  S
O128       Mg160   2.305       .  S
Mg129       O135   2.099       .  S
Mg129       O143   2.227       .  S
Mg129       O131   2.255       .  S
C130       C4837   1.477       .  S
C130        O168   1.263       .  A
C130        O136   1.271   1_655  A
O131        C138   1.271       .  A
H132        C145   1.079       .  S
C133        O147   1.242       .  S
C133        O148   1.281       .  A
C133        H158   1.081       .  S
O134        C157   1.279   1_565  A
O135       Mg149   2.154       .  S
O136       Mg166   2.267       .  S
C137       C4825   1.466       .  S
C137        O150   1.265       .  A
C137        O142   1.251       .  A
C138       C4813   1.462       .  S
C138        O165   1.256       .  A
Mg139       O146   2.127       .  S
Mg139       O147   2.145   1_655  S
Mg139       O140   2.220   1_655  S
Mg139       O141   2.280       .  S
Mg139       O168   2.242       .  S
O141        C145   1.267   1_545  A
O142       Mg149   2.245       .  S
O143        C162   1.266       .  A
O144        C164   1.254       .  A
O144       Mg160   2.248       .  S
O146       Mg160   2.102       .  S
O146        C157   1.243       .  S
O147       Mg166   2.136       .  S
O148       Mg160   2.352   1_455  S
Mg149       O165   2.236       .  S
O150       Mg166   2.344   1_565  S
H151        C156   1.081       .  S
O152       Mg160   2.131   1_465  S
O152        C155   1.236       .  S
H153        C155   1.081       .  S
H154        C157   1.081       .  S
O159       Mg166   2.333   1_565  S
C162       C4789   1.459       .  S
C162        O167   1.268       .  A
O163        C164   1.264   1_565  A
C164       C4777   1.455       .  S
C169        C170   1.422       .  A
C169        C174   1.396       .  A
C169       C4765   1.480       .  S
C170        C171   1.426   1_565  A
C170        H175   1.078   1_565  S
C171        C172   1.406   1_545  A
C171       C5188   1.526       .  S
C172        C173   1.397       .  A
C172        H176   1.081       .  S
C173        C174   1.391       .  A
C173       C4792   1.480       .  S
C174        H177   1.082       .  S
C178        C179   1.429       .  A
C178        C183   1.400       .  A
C178       C5200   1.501       .  S
C179        C180   1.431       .  A
C179        H184   1.082       .  S
C180        C181   1.405       .  A
C180       C4864   1.502       .  S
C181        C182   1.393       .  A
C181        H185   1.085       .  S
C182        C183   1.386       .  A
C182       C4780   1.483       .  S
C183        H186   1.085       .  S
C187        C188   1.413       .  A
C187        C192   1.447       .  A
C187       C4753   1.524       .  S
C188        C189   1.388       .  A
C188        H193   1.082       .  S
C189        C190   1.386       .  A
C189       C4816   1.484       .  S
C190        C191   1.393       .  A
C190        H194   1.085       .  S
C191        C192   1.444       .  A
C191       C4744   1.513       .  S
C192        H195   1.082       .  S
C196        C197   1.424       .  A
C196        C201   1.408       .  A
C196       C4732   1.481       .  S
C197        C198   1.418       .  A
C197        H202   1.083       .  S
C198        C199   1.404       .  A
C198       C4852   1.496       .  S
C199        C200   1.388       .  A
C199        H203   1.083       .  S
C200        C201   1.395       .  A
C200       C4804   1.483       .  S
C201        H204   1.085       .  S
C205        C206   1.406       .  A
C205        C210   1.429   1_545  A
C205       C4720   1.476       .  S
C206        C207   1.384       .  A
C206        H211   1.085       .  S
C207        C208   1.401       .  A
C207       C4840   1.474       .  S
C208        C209   1.392   1_545  A
C208        H212   1.086       .  S
C209        C210   1.418       .  A
C209       C4705   1.508       .  S
C210        H213   1.083       .  S
C214        C215   1.418       .  A
C214        C219   1.454       .  A
C214       C4696   1.550   1_655  S
C215        C216   1.394       .  A
C215        H220   1.072       .  S
C216        C217   1.378       .  A
C216       C4828   1.501       .  S
C217        C218   1.400       .  A
C217        H221   1.085       .  S
C218        C219   1.451       .  A
C218       C4681   1.503       .  S
C219        H222   1.080   1_655  S
C223        C224   1.429       .  A
C223        C228   1.431       .  A
C223       C4756   1.521       .  S
C224        C225   1.432       .  A
C224       C4768   1.498       .  S
C225        C226   1.436       .  A
C225       C4633   1.509   1_565  S
C226        C227   1.442       .  A
C226       C4645   1.539   1_565  S
C227        C228   1.440       .  A
C227       C4672   1.511       .  S
C228       C4657   1.511       .  S
O229       Mg231   2.111   1_554  S
O229       Mg237   2.161       .  S
O229        C264   1.229       .  S
C230        O243   1.238       .  S
C230        O267   1.274       .  A
C230        H269   1.081       .  S
Mg231       O260   2.157       .  S
Mg231       O275   2.229       .  S
Mg231       O271   2.271       .  S
Mg231       O242   2.277   1_455  S
O232       Mg274   2.189       .  S
O232       Mg257   2.145       .  S
O232        C253   1.239   1_455  S
O233        C264   1.261       .  A
O233       Mg257   2.271       .  S
C234       C4621   1.475       .  S
C234        O236   1.265       .  A
C234        O248   1.266       .  A
O235        C263   1.262       .  A
O235       Mg237   2.231   1_556  S
O236       Mg268   2.211       .  S
Mg237       O243   2.151       .  S
Mg237       O251   2.278   1_554  S
Mg237       O239   2.283       .  S
C238       C4609   1.464       .  S
C238        O276   1.248       .  A
C238        O244   1.263       .  A
O239        C246   1.276       .  A
H240        C253   1.079       .  S
C241        O255   1.239       .  S
C241        O256   1.279   1_554  A
C241        H266   1.081       .  S
O242        C265   1.271       .  A
O243       Mg257   2.150       .  S
O244       Mg274   2.356   1_655  S
C245       C4600   1.495   1_455  S
C245        O258   1.262       .  A
C245        O250   1.271       .  A
C246       C4561   1.459       .  S
C246        O273   1.274       .  A
Mg247       O254   2.091       .  S
Mg247       O255   2.070   1_656  S
Mg247       O248   2.290   1_655  S
Mg247       O249   2.368   1_556  S
Mg247       O276   2.191   1_556  S
O249        C253   1.276       .  A
O250       Mg257   2.225       .  S
O251        C270   1.280       .  A
O252        C272   1.275       .  A
O252       Mg268   2.285       .  S
O254       Mg268   2.089   1_655  S
O254        C265   1.240       .  S
O255       Mg274   2.186       .  S
O256       Mg268   2.369       .  S
Mg257       O273   2.236       .  S
O258       Mg274   2.303       .  S
H259        C264   1.081       .  S
O260       Mg268   2.037       .  S
O260        C263   1.236       .  S
H261        C263   1.080       .  S
H262        C265   1.081       .  S
O267       Mg274   2.318       .  S
C270       C4573   1.461       .  S
C270        O275   1.269       .  A
O271        C272   1.263       .  A
C272       C4585   1.468       .  S
C277        C278   1.415       .  A
C277        C282   1.421   1_556  A
C277       C5260   1.510   1_556  S
C278        C279   1.412       .  A
C278        H283   1.082       .  S
C279        C280   1.389       .  A
C279       C4576   1.496       .  S
C280        C281   1.401       .  A
C280        H284   1.085       .  S
C281        C282   1.421   1_556  A
C281       C4549   1.490       .  S
C282        H285   1.083       .  S
C286        C287   1.400       .  A
C286        C291   1.427       .  A
C286       C5272   1.496       .  S
C287        C288   1.389       .  A
C287        H292   1.084       .  S
C288        C289   1.403       .  A
C288       C4564   1.488       .  S
C289        C290   1.404       .  A
C289        H293   1.078       .  S
C290        C291   1.422       .  A
C290       C4540   1.505   1_455  S
C291        H294   1.083   1_455  S
C295        C296   1.414       .  A
C295        C300   1.419       .  A
C295       C4516   1.498       .  S
C296        C297   1.408       .  A
C296        H301   1.083       .  S
C297        C298   1.395       .  A
C297       C4597   1.501       .  S
C298        C299   1.397       .  A
C298        H302   1.084       .  S
C299        C300   1.415       .  A
C299       C4525   1.485       .  S
C300        H303   1.083       .  S
C304        C305   1.401       .  A
C304        C309   1.425       .  A
C304       C4489   1.503       .  S
C305        C306   1.390       .  A
C305        H310   1.082       .  S
C306        C307   1.390       .  A
C306       C4588   1.463       .  S
C307        C308   1.400       .  A
C307        H311   1.085       .  S
C308        C309   1.429       .  A
C308       C4501   1.487       .  S
C309        H312   1.083       .  S
C313        C314   1.405       .  A
C313        C318   1.429       .  A
C313       C4480   1.501       .  S
C314        C315   1.396       .  A
C314        H319   1.082       .  S
C315        C316   1.400       .  A
C315       C4624   1.503       .  S
C316        C317   1.401       .  A
C316        H320   1.079       .  S
C317        C318   1.420       .  A
C317       C4465   1.503   1_455  S
C318        H321   1.082   1_455  S
C322        C323   1.407   1_554  A
C322        C327   1.430       .  A
C322       C4453   1.502       .  S
C323        C324   1.381       .  A
C323        H328   1.084       .  S
C324        C325   1.387       .  A
C324       C4612   1.479       .  S
C325        C326   1.405       .  A
C325        H329   1.086       .  S
C326        C327   1.433   1_556  A
C326       C4441   1.486       .  S
C327        H330   1.082       .  S
C331        C332   1.432       .  A
C331        C336   1.433       .  A
C331       C4432   1.493   1_655  S
C332        C333   1.420       .  A
C332       C4537   1.520       .  S
C333        C334   1.431       .  A
C333       C4528   1.499       .  S
C334        C335   1.427       .  A
C334       C4408   1.495       .  S
C335        C336   1.432       .  A
C335       C4393   1.520       .  S
C336       C4420   1.508   1_655  S
C337        C338   1.424   1_554  A
C337        C342   1.422       .  A
C337       C4381   1.496       .  S
C338        C339   1.421       .  A
C338       C4552   1.500       .  S
C339        C340   1.425       .  A
C339       C4504   1.500       .  S
C340        C341   1.426       .  A
C340       C4348   1.499       .  S
C341        C342   1.425   1_556  A
C341       C4357   1.501       .  S
C342       C4372   1.502       .  S
O343       Mg345   2.138       .  S
O343       Mg351   2.110       .  S
O343        C378   1.238       .  S
C344        O357   1.243       .  S
C344        O381   1.276   1_556  A
C344        H383   1.080   1_565  S
Mg345       O374   2.170   1_565  S
Mg345       O389   2.302   1_565  S
Mg345       O385   2.335   1_565  S
Mg345       O356   2.352   1_556  S
O346       Mg388   2.188       .  S
O346       Mg371   2.112   1_554  S
O346        C367   1.231       .  S
O347        C378   1.273       .  A
O347       Mg371   2.311       .  S
C348       C4276   1.472   1_545  S
C348        O350   1.258       .  A
C348        O362   1.258       .  A
O349        C377   1.265       .  A
O349       Mg351   2.313   1_545  S
O350       Mg382   2.288       .  S
Mg351       O357   2.108       .  S
Mg351       O365   2.227       .  S
Mg351       O353   2.241       .  S
C352       C4297   1.461       .  S
C352        O390   1.258       .  A
C352        O358   1.267       .  A
O353        C360   1.267       .  A
H354        C367   1.081       .  S
C355        O369   1.240       .  S
C355        O370   1.278       .  A
C355        H380   1.081       .  S
O356        C379   1.282       .  A
O357       Mg371   2.151       .  S
O358       Mg388   2.274       .  S
C359       C4321   1.454       .  S
C359        O372   1.263       .  A
C359        O364   1.248       .  A
C360       C4336   1.470       .  S
C360        O387   1.257       .  A
Mg361       O368   2.126       .  S
Mg361       O369   2.137   1_565  S
Mg361       O362   2.204   1_565  S
Mg361       O363   2.307       .  S
Mg361       O390   2.214       .  S
O363        C367   1.263       .  A
O364       Mg371   2.167   1_554  S
O365        C384   1.262   1_565  A
O366        C386   1.238   1_554  A
O366       Mg382   2.196       .  S
O368       Mg382   2.154   1_565  S
O368        C379   1.246       .  S
O369       Mg388   2.145   1_545  S
O370       Mg382   2.335       .  S
Mg371       O387   2.289       .  S
O372       Mg388   2.300       .  S
H373        C378   1.081       .  S
O374       Mg382   2.099   1_556  S
O374        C377   1.232       .  S
H375        C377   1.081       .  S
H376        C379   1.081       .  S
O381       Mg388   2.317       .  S
C384       C4309   1.473       .  S
C384        O389   1.269       .  A
O385        C386   1.258       .  A
C386       C4285   1.444   1_556  S
C391        C392   1.407       .  A
C391        C396   1.441       .  A
C391       C4261   1.533   1_554  S
C392        C393   1.395       .  A
C392        H397   1.071       .  S
C393        C394   1.388       .  A
C393       C4288   1.502       .  S
C394        C395   1.400       .  A
C394        H398   1.084       .  S
C395        C396   1.442       .  A
C395       C4249   1.504       .  S
C396        H399   1.082   1_554  S
C400        C401   1.400       .  A
C400        C405   1.439   1_565  A
C400       C4237   1.494       .  S
C401        C402   1.380       .  A
C401        H406   1.084       .  S
C402        C403   1.400       .  A
C402       C4273   1.499       .  S
C403        C404   1.404       .  A
C403        H407   1.072       .  S
C404        C405   1.434   1_565  A
C404       C4228   1.529   1_565  S
C405        H408   1.082       .  S
C409        C410   1.395       .  A
C409        C414   1.438       .  A
C409       C4201   1.504       .  S
C410        C411   1.388       .  A
C410        H415   1.086       .  S
C411        C412   1.373       .  A
C411       C4312   1.469       .  S
C412        C413   1.400       .  A
C412        H416   1.085       .  S
C413        C414   1.440       .  A
C413       C4216   1.503       .  S
C414        H417   1.082       .  S
C418        C419   1.398       .  A
C418        C423   1.449       .  A
C418       C4189   1.504       .  S
C419        C420   1.383       .  A
C419        H424   1.083       .  S
C420        C421   1.377       .  A
C420       C4300   1.487       .  S
C421        C422   1.414       .  A
C421        H425   1.075       .  S
C422        C423   1.451       .  A
C422       C4177   1.532       .  S
C423        H426   1.081       .  S
C427        C428   1.405       .  A
C427        C432   1.429   1_545  A
C427       C4153   1.495       .  S
C428        C429   1.392       .  A
C428        H433   1.084       .  S
C429        C430   1.389       .  A
C429       C4333   1.503       .  S
C430        C431   1.410   1_545  A
C430        H434   1.078       .  S
C431        C432   1.434       .  A
C431       C4165   1.519       .  S
C432        H435   1.080       .  S
C436        C437   1.403   1_554  A
C436        C441   1.443       .  A
C436       C4132   1.519       .  S
C437        C438   1.378       .  A
C437        H442   1.084       .  S
C438        C439   1.384       .  A
C438       C4324   1.469       .  S
C439        C440   1.402       .  A
C439        H443   1.086       .  S
C440        C441   1.447   1_556  A
C440       C4141   1.506       .  S
C441        H444   1.082       .  S
C445        C446   1.437       .  A
C445        C450   1.434       .  A
C445       C4192   1.516       .  S
C446        C447   1.428       .  A
C446       C4240   1.504       .  S
C447        C448   1.426       .  A
C447       C4081   1.516   1_565  S
C448        C449   1.438       .  A
C448       C4093   1.504   1_565  S
C449        C450   1.435       .  A
C449       C4108   1.516       .  S
C450       C4117   1.512       .  S
C451        C452   1.437       .  A
C451        C456   1.441       .  A
C451       C4045   1.534   1_556  S
C452        C453   1.439       .  A
C452       C4264   1.520       .  S
C453        C454   1.445       .  A
C453       C4213   1.502       .  S
C454        C455   1.444       .  A
C454       C4057   1.566       .  S
C455        C456   1.445       .  A
C455       C4069   1.513       .  S
C456       C4033   1.507   1_556  S
C457        C458   1.425       .  A
C457        C462   1.430       .  A
C457       C4012   1.486       .  S
C458        C459   1.429       .  A
C458       C4021   1.527       .  S
C459        C460   1.444       .  A
C459       C4984   1.510       .  S
C460        C461   1.444       .  A
C460       C4960   1.520       .  S
C461        C462   1.433       .  A
C461       C3985   1.507       .  S
C462       C3997   1.529       .  S
O463       Mg465   2.098       .  S
O463       Mg471   2.136       .  S
O463        C498   1.238       .  S
C464        O477   1.237       .  S
C464        O501   1.272       .  A
C464        H503   1.081       .  S
Mg465       O494   2.236       .  S
Mg465       O509   2.251       .  S
Mg465       O505   2.300       .  S
Mg465       O476   2.270       .  S
O466       Mg508   2.103       .  S
O466       Mg491   2.223       .  S
O466        C487   1.238       .  S
O467        C498   1.271       .  A
O467       Mg491   2.294       .  S
C468       C3916   1.466       .  S
C468        O470   1.267       .  A
C468        O482   1.257       .  A
O469        C497   1.266       .  A
O469       Mg471   2.273       .  S
O470       Mg502   2.311       .  S
Mg471       O477   2.098       .  S
Mg471       O485   2.249       .  S
Mg471       O473   2.241       .  S
C472       C3961   1.440       .  S
C472        O510   1.266       .  A
C472        O478   1.259       .  A
O473        C480   1.266       .  A
H474        C487   1.081       .  S
C475        O489   1.238       .  S
C475        O490   1.272       .  A
C475        H500   1.081       .  S
O476        C499   1.270       .  A
O477       Mg491   2.143       .  S
O478       Mg508   2.186       .  S
C479       C3973   1.463       .  S
C479        O492   1.238       .  A
C479        O484   1.258       .  A
C480       C3925   1.484       .  S
C480        O507   1.268       .  A
Mg481       O488   2.088       .  S
Mg481       O489   2.124       .  S
Mg481       O482   2.247       .  S
Mg481       O483   2.339       .  S
Mg481       O510   2.253       .  S
O483        C487   1.275       .  A
O484       Mg491   2.319       .  S
O485        C504   1.268       .  A
O486        C506   1.257       .  A
O486       Mg502   2.142       .  S
O488       Mg502   2.146       .  S
O488        C499   1.242       .  S
O489       Mg508   2.034       .  S
O490       Mg502   2.308       .  S
Mg491       O507   2.305       .  S
O492       Mg508   2.166       .  S
H493        C498   1.081       .  S
O494       Mg502   2.108       .  S
O494        C497   1.234       .  S
H495        C497   1.081       .  S
H496        C499   1.081       .  S
O501       Mg508   2.338       .  S
C504       C3949   1.468       .  S
C504        O509   1.274       .  A
O505        C506   1.268       .  A
C506       C3937   1.470       .  S
C511        C512   1.392       .  A
C511        C516   1.421       .  A
C511       C4384   1.482       .  S
C512        C513   1.385       .  A
C512        H517   1.087       .  S
C513        C514   1.394       .  A
C513       C3913   1.461       .  S
C514        C515   1.410       .  A
C514        H518   1.084       .  S
C515        C516   1.426       .  A
C515       C3904   1.512       .  S
C516        H519   1.079       .  S
C520        C521   1.433       .  A
C520        C525   1.407       .  A
C520       C4369   1.500       .  S
C521        C522   1.428       .  A
C521        H526   1.083       .  S
C522        C523   1.399       .  A
C522       C4000   1.506       .  S
C523        C524   1.393       .  A
C523        H527   1.077       .  S
C524        C525   1.392       .  A
C524       C3940   1.480       .  S
C525        H528   1.086       .  S
C529        C530   1.401       .  A
C529        C534   1.431       .  A
C529       C4429   1.487       .  S
C530        C531   1.389       .  A
C530        H535   1.086       .  S
C531        C532   1.385       .  A
C531       C3964   1.484       .  S
C532        C533   1.401       .  A
C532        H536   1.078       .  S
C533        C534   1.425       .  A
C533       C3892   1.507       .  S
C534        H537   1.082       .  S
C538        C539   1.396       .  A
C538        C543   1.439       .  A
C538       C4417   1.495       .  S
C539        C540   1.375       .  A
C539        H544   1.083       .  S
C540        C541   1.378       .  A
C540       C3976   1.467       .  S
C541        C542   1.391       .  A
C541        H545   1.084       .  S
C542        C543   1.436       .  A
C542       C3880   1.501       .  S
C543        H546   1.082       .  S
C547        C548   1.428       .  A
C547        C552   1.402       .  A
C547       C3865   1.482       .  S
C548        C549   1.422       .  A
C548        H553   1.083       .  S
C549        C550   1.403       .  A
C549       C3988   1.509       .  S
C550        C551   1.399       .  A
C550        H554   1.082       .  S
C551        C552   1.383       .  A
C551       C3952   1.467       .  S
C552        H555   1.086       .  S
C556        C557   1.410       .  A
C556        C561   1.430       .  A
C556       C3841   1.494       .  S
C557        C558   1.398       .  A
C557        H562   1.084       .  S
C558        C559   1.389       .  A
C558       C3928   1.477       .  S
C559        C560   1.391       .  A
C559        H563   1.087       .  S
C560        C561   1.422       .  A
C560       C3853   1.497       .  S
C561        H564   1.083       .  S
C565        C566   1.427       .  A
C565        C570   1.449       .  A
C565       C5032   1.516       .  S
C566        C567   1.426       .  A
C566       C5008   1.510       .  S
C567        C568   1.427       .  A
C567       C3829   1.501       .  S
C568        C569   1.440       .  A
C568       C3817   1.532       .  S
C569        C570   1.447       .  A
C569       C3877   1.510       .  S
C570       C3856   1.529       .  S
O571       Mg573   2.129       .  S
O571       Mg579   2.196       .  S
O571        C606   1.239       .  S
C572        O585   1.240       .  S
C572        O609   1.271       .  A
C572        H611   1.079       .  S
Mg573       O602   2.336       .  S
Mg573       O617   2.289       .  S
Mg573       O613   2.425       .  S
Mg573       O584   2.280       .  S
O574       Mg616   2.155       .  S
O574       Mg599   2.164       .  S
O574        C595   1.237       .  S
O575        C606   1.274       .  A
O575       Mg599   2.310       .  S
C576       C3805   1.452       .  S
C576        O578   1.266       .  A
C576        O590   1.268       .  A
O577        C605   1.253       .  A
O577       Mg579   2.212       .  S
O578       Mg610   2.252       .  S
Mg579       O585   2.151       .  S
Mg579       O593   2.292       .  S
Mg579       O581   2.232       .  S
C580       C3769   1.464       .  S
C580        O618   1.263       .  A
C580        O586   1.272       .  A
O581        C588   1.267       .  A
H582        C595   1.081       .  S
C583        O597   1.233       .  S
C583        O598   1.263       .  A
C583        H608   1.081       .  S
O584        C607   1.267       .  A
O585       Mg599   2.156       .  S
O586       Mg616   2.281       .  S
C587       C3781   1.440       .  S
C587        O600   1.260       .  A
C587        O592   1.269       .  A
C588       C3796   1.489       .  S
C588        O615   1.269       .  A
Mg589       O596   2.040       .  S
Mg589       O597   2.093       .  S
Mg589       O590   2.200       .  S
Mg589       O591   2.323       .  S
Mg589       O618   2.223       .  S
O591        C595   1.274       .  A
O592       Mg599   2.250       .  S
O593        C612   1.277       .  A
O594        C614   1.227       .  A
O594       Mg610   2.042       .  S
O596       Mg610   2.179       .  S
O596        C607   1.236       .  S
O597       Mg616   2.049       .  S
O598       Mg610   2.276       .  S
Mg599       O615   2.317       .  S
O600       Mg616   2.191       .  S
H601        C606   1.081       .  S
O602       Mg610   2.052       .  S
O602        C605   1.232       .  S
H603        C605   1.081       .  S
H604        C607   1.081       .  S
O609       Mg616   2.298       .  S
C612       C3757   1.481       .  S
C612        O617   1.263       .  A
O613        C614   1.260       .  A
C614       C3745   1.454       .  S
C619        C620   1.398       .  A
C619        C624   1.432       .  A
C619       C4048   1.519       .  S
C620        C621   1.392       .  A
C620        H625   1.086       .  S
C621        C622   1.387       .  A
C621       C3748   1.465       .  S
C622        C623   1.403       .  A
C622        H626   1.085       .  S
C623        C624   1.439       .  A
C623       C3736   1.497       .  S
C624        H627   1.082       .  S
C628        C629   1.401       .  A
C628        C633   1.432       .  A
C628       C4096   1.499       .  S
C629        C630   1.389       .  A
C629        H634   1.080       .  S
C630        C631   1.400       .  A
C630       C3772   1.506       .  S
C631        C632   1.419       .  A
C631        H635   1.081       .  S
C632        C633   1.437       .  A
C632       C3724   1.525       .  S
C633        H636   1.081       .  S
C637        C638   1.409       .  A
C637        C642   1.450       .  A
C637       C4084   1.509       .  S
C638        C639   1.389       .  A
C638        H643   1.080       .  S
C639        C640   1.378       .  A
C639       C3808   1.469       .  S
C640        C641   1.387       .  A
C640        H644   1.070       .  S
C641        C642   1.444       .  A
C641       C3709   1.537       .  S
C642        H645   1.081       .  S
C646        C647   1.420       .  A
C646        C651   1.431       .  A
C646       C4024   1.525       .  S
C647        C648   1.410       .  A
C647        H652   1.083       .  S
C648        C649   1.387       .  A
C648       C3793   1.482       .  S
C649        C650   1.388       .  A
C649        H653   1.087       .  S
C650        C651   1.423       .  A
C650       C3697   1.491       .  S
C651        H654   1.082       .  S
C655        C656   1.408       .  A
C655        C660   1.448       .  A
C655       C3673   1.511       .  S
C656        C657   1.390       .  A
C656        H661   1.084       .  S
C657        C658   1.385       .  A
C657       C3784   1.483       .  S
C658        C659   1.409       .  A
C658        H662   1.082       .  S
C659        C660   1.443       .  A
C659       C3685   1.521       .  S
C660        H663   1.082       .  S
C664        C665   1.426       .  A
C664        C669   1.405       .  A
C664       C4009   1.485       .  S
C665        C666   1.419       .  A
C665        H670   1.082       .  S
C666        C667   1.397       .  A
C666       C4036   1.496       .  S
C667        C668   1.394       .  A
C667        H671   1.076       .  S
C668        C669   1.394       .  A
C668       C3760   1.501       .  S
C669        H672   1.084       .  S
C673        C674   1.433       .  A
C673        C678   1.424       .  A
C673       C4936   1.517       .  S
C674        C675   1.445       .  A
C674       C5056   1.499       .  S
C675        C676   1.447       .  A
C675       C3688   1.549       .  S
C676        C677   1.441       .  A
C676       C3721   1.506       .  S
C677        C678   1.427       .  A
C677       C3652   1.515       .  S
C678       C3661   1.510       .  S
O679       Mg681   2.152       .  S
O679       Mg687   2.106       .  S
O679        C714   1.240       .  S
C680        O693   1.243       .  S
C680        O717   1.279       .  A
C680        H719   1.081       .  S
Mg681       O710   2.208       .  S
Mg681       O725   2.309       .  S
Mg681       O721   2.292       .  S
Mg681       O692   2.302       .  S
O682       Mg724   2.169       .  S
O682       Mg707   2.089       .  S
O682        C703   1.238       .  S
O683        C714   1.277       .  A
O683       Mg707   2.337       .  S
C684       C3637   1.463       .  S
C684        O686   1.263       .  A
C684        O698   1.265       .  A
O685        C713   1.266       .  A
O685       Mg687   2.281       .  S
O686       Mg718   2.249       .  S
Mg687       O693   2.134       .  S
Mg687       O701   2.215       .  S
Mg687       O689   2.232       .  S
C688       C3577   1.490       .  S
C688        O726   1.260       .  A
C688        O694   1.273       .  A
O689        C696   1.253       .  A
H690        C703   1.081       .  S
C691        O705   1.237       .  S
C691        O706   1.271       .  A
C691        H716   1.081       .  S
O692        C715   1.274       .  A
O693       Mg707   2.098       .  S
O694       Mg724   2.354       .  S
C695       C3589   1.463       .  S
C695        O708   1.265       .  A
C695        O700   1.263       .  A
C696       C3601   1.438       .  S
C696        O723   1.262       .  A
Mg697       O704   2.123       .  S
Mg697       O705   2.117       .  S
Mg697       O698   2.233       .  S
Mg697       O699   2.312       .  S
Mg697       O726   2.219       .  S
O699        C703   1.271       .  A
O700       Mg707   2.257       .  S
O701        C720   1.255       .  A
O702        C722   1.262       .  A
O702       Mg718   2.223       .  S
O704       Mg718   2.178       .  S
O704        C715   1.241       .  S
O705       Mg724   2.145       .  S
O706       Mg718   2.304       .  S
Mg707       O723   2.221       .  S
O708       Mg724   2.289       .  S
H709        C714   1.081       .  S
O710       Mg718   2.104       .  S
O710        C713   1.236       .  S
H711        C713   1.078       .  S
H712        C715   1.081       .  S
O717       Mg724   2.331       .  S
C720       C3625   1.478       .  S
C720        O725   1.267       .  A
O721        C722   1.260       .  A
C722       C3613   1.480       .  S
C727        C728   1.428       .  A
C727        C732   1.425       .  A
C727       C3820   1.528       .  S
C728        C729   1.422       .  A
C728        H733   1.080       .  S
C729        C730   1.394       .  A
C729       C4909   1.477       .  S
C730        C731   1.383       .  A
C730        H734   1.086       .  S
C731        C732   1.396       .  A
C731       C3580   1.494       .  S
C732        H735   1.077       .  S
C736        C737   1.440       .  A
C736        C741   1.410       .  A
C736       C4897   1.526       .  S
C737        C738   1.431       .  A
C737        H742   1.079       .  S
C738        C739   1.387       .  A
C738       C3568   1.486       .  S
C739        C740   1.370       .  A
C739        H743   1.085       .  S
C740        C741   1.386       .  A
C740       C3592   1.461       .  S
C741        H744   1.078       .  S
C745        C746   1.442       .  A
C745        C750   1.411       .  A
C745       C3553   1.538       .  S
C746        C747   1.446       .  A
C746        H751   1.080       .  S
C747        C748   1.406       .  A
C747       C3664   1.495       .  S
C748        C749   1.385       .  A
C748        H752   1.086       .  S
C749        C750   1.382       .  A
C749       C3616   1.494       .  S
C750        H753   1.076       .  S
C754        C755   1.397       .  A
C754        C759   1.426       .  A
C754       C4636   1.496       .  S
C755        C756   1.392       .  A
C755        H760   1.086       .  S
C756        C757   1.412       .  A
C756       C3604   1.489       .  S
C757        C758   1.414       .  A
C757        H761   1.079       .  S
C758        C759   1.428       .  A
C758       C3541   1.530       .  S
C759        H762   1.082       .  S
C763        C764   1.438       .  A
C763        C768   1.410       .  A
C763       C4648   1.515       .  S
C764        C765   1.439       .  A
C764        H769   1.082       .  S
C765        C766   1.399       .  A
C765       C3649   1.504       .  S
C766        C767   1.385       .  A
C766        H770   1.086       .  S
C767        C768   1.390       .  A
C767       C3628   1.482       .  S
C768        H771   1.081       .  S
C772        C773   1.400       .  A
C772        C777   1.423       .  A
C772       C3832   1.471       .  S
C773        C774   1.375       .  A
C773        H778   1.087       .  S
C774        C775   1.400       .  A
C774       C3640   1.465       .  S
C775        C776   1.408       .  A
C775        H779   1.084       .  S
C776        C777   1.418       .  A
C776       C3529   1.509       .  S
C777        H780   1.083       .  S
C781        C782   1.431       .  A
C781        C786   1.436       .  A
C781       C3901   1.494       .  S
C782        C783   1.433       .  A
C782       C3733   1.523       .  S
C783        C784   1.437       .  A
C783       C3712   1.501       .  S
C784        C785   1.437       .  A
C784       C3544   1.527       .  S
C785        C786   1.443       .  A
C785       C3565   1.503       .  S
C786       C3889   1.551       .  S
C787        C788   1.437       .  A
C787        C792   1.437       .  A
C787       C4225   1.518       .  S
C788        C789   1.438       .  A
C788       C4252   1.519       .  S
C789        C790   1.445       .  A
C789       C3505   1.507   1_554  S
C790        C791   1.439       .  A
C790       C3517   1.541       .  S
C791        C792   1.432       .  A
C791       C3484   1.513   1_545  S
C792       C3493   1.512   1_545  S
C793        C794   1.445       .  A
C793        C798   1.436       .  A
C793       C3445   1.530       .  S
C794        C795   1.434       .  A
C794       C5044   1.503       .  S
C795        C796   1.435       .  A
C795       C4972   1.519       .  S
C796        C797   1.436       .  A
C796       C3469   1.529       .  S
C797        C798   1.445       .  A
C797       C3457   1.509       .  S
C798       C3433   1.527       .  S
C799        C800   1.444       .  A
C799        C804   1.433       .  A
C799       C3397   1.523       .  S
C800        C801   1.447       .  A
C800       C4996   1.512       .  S
C801        C802   1.438       .  A
C801       C4924   1.534       .  S
C802        C803   1.424       .  A
C802       C3421   1.497       .  S
C803        C804   1.421       .  A
C803       C3409   1.509       .  S
C804       C3385   1.506       .  S
C805        C806   1.449       .  A
C805        C810   1.431       .  A
C805       C4948   1.528       .  S
C806        C807   1.447       .  A
C806       C5020   1.524       .  S
C807        C808   1.442       .  A
C807       C3373   1.519       .  S
C808        C809   1.428       .  A
C808       C3361   1.516       .  S
C809        C810   1.422       .  A
C809       C3349   1.509       .  S
C810       C3337   1.505       .  S
C811        C812   1.428       .  A
C811        C816   1.433       .  A
C811       C3325   1.521       .  S
C812        C813   1.435       .  A
C812       C3313   1.510       .  S
C813        C814   1.439       .  A
C813       C3301   1.505       .  S
C814        C815   1.436       .  A
C814       C3289   1.529       .  S
C815        C816   1.435       .  A
C815       C3277   1.522       .  S
C816       C3265   1.498       .  S
C817        C818   1.438       .  A
C817        C822   1.428       .  A
C817       C3253   1.482       .  S
C818        C819   1.427       .  A
C818       C4492   1.525       .  S
C819        C820   1.426       .  A
C819       C4477   1.507       .  S
C820        C821   1.422       .  A
C820       C3217   1.483   1_455  S
C821        C822   1.415       .  A
C821       C3229   1.504   1_455  S
C822       C3241   1.514       .  S
C823        C824   1.443       .  A
C823        C828   1.439       .  A
C823       C4741   1.527       .  S
C824        C825   1.438       .  A
C824       C4693   1.521       .  S
C825        C826   1.430       .  A
C825       C3205   1.508   1_455  S
C826        C827   1.425       .  A
C826       C3193   1.502   1_455  S
C827        C828   1.429       .  A
C827       C3181   1.523       .  S
C828       C3169   1.494       .  S
O829       Mg831   2.152       .  S
O829       Mg837   2.197       .  S
O829        C864   1.237       .  S
C830        O843   1.243       .  S
C830        O867   1.271       .  A
C830        H869   1.078       .  S
Mg831       O860   2.223       .  S
Mg831       O875   2.283       .  S
Mg831       O871   2.320       .  S
Mg831       O842   2.319       .  S
O832       Mg874   2.151       .  S
O832       Mg857   2.073       .  S
O832        C853   1.231       .  S
O833        C864   1.269       .  A
O833       Mg857   2.282       .  S
C834       C3145   1.463       .  S
C834        O836   1.268       .  A
C834        O848   1.254       .  A
O835        C863   1.267       .  A
O835       Mg837   2.273       .  S
O836       Mg868   2.307       .  S
Mg837       O843   2.117       .  S
Mg837       O851   2.259       .  S
Mg837       O839   2.284       .  S
C838       C3157   1.490       .  S
C838        O876   1.267       .  A
C838        O844   1.270       .  A
O839        C846   1.276       .  A
H840        C853   1.077       .  S
C841        O855   1.241       .  S
C841        O856   1.276       .  A
C841        H866   1.081       .  S
O842        C865   1.274       .  A
O843       Mg857   2.176       .  S
O844       Mg874   2.309       .  S
C845       C3121   1.464       .  S
C845        O858   1.265       .  A
C845        O850   1.283       .  A
C846       C3133   1.471       .  S
C846        O873   1.258       .  A
Mg847       O854   2.117       .  S
Mg847       O855   2.129       .  S
Mg847       O848   2.228       .  S
Mg847       O849   2.258       .  S
Mg847       O876   2.230       .  S
O849        C853   1.264       .  A
O850       Mg857   2.320       .  S
O851        C870   1.273       .  A
O852        C872   1.255       .  A
O852       Mg868   2.220       .  S
O854       Mg868   2.121       .  S
O854        C865   1.240       .  S
O855       Mg874   2.108       .  S
O856       Mg868   2.322       .  S
Mg857       O873   2.267       .  S
O858       Mg874   2.184       .  S
H859        C864   1.081       .  S
O860       Mg868   2.176       .  S
O860        C863   1.239       .  S
H861        C863   1.080       .  S
H862        C865   1.081       .  S
O867       Mg874   2.267       .  S
C870       C3109   1.474       .  S
C870        O875   1.263       .  A
O871        C872   1.264       .  A
C872       C3097   1.461       .  S
C877        C878   1.413       .  A
C877        C882   1.426       .  A
C877       C3352   1.499       .  S
C878        C879   1.401       .  A
C878        H883   1.084       .  S
C879        C880   1.389       .  A
C879       C3160   1.491       .  S
C880        C881   1.392       .  A
C880        H884   1.080       .  S
C881        C882   1.418       .  A
C881       C3085   1.492       .  S
C882        H885   1.082       .  S
C886        C887   1.402       .  A
C886        C891   1.452       .  A
C886       C3472   1.525       .  S
C887        C888   1.378       .  A
C887        H892   1.084       .  S
C888        C889   1.383       .  A
C888       C3100   1.476       .  S
C889        C890   1.407       .  A
C889        H893   1.082       .  S
C890        C891   1.451       .  A
C890       C3073   1.529       .  S
C891        H894   1.082       .  S
C895        C896   1.427       .  A
C895        C900   1.403       .  A
C895       C3196   1.494       .  S
C896        C897   1.423       .  A
C896        H901   1.082       .  S
C897        C898   1.397       .  A
C897       C3460   1.494       .  S
C898        C899   1.388       .  A
C898        H902   1.084       .  S
C899        C900   1.388       .  A
C899       C3112   1.480       .  S
C900        H903   1.083       .  S
C904        C905   1.402       .  A
C904        C909   1.429       .  A
C904       C3340   1.479       .  S
C905        C906   1.384       .  A
C905        H910   1.086       .  S
C906        C907   1.388       .  A
C906       C3148   1.472       .  S
C907        C908   1.401       .  A
C907        H911   1.072       .  S
C908        C909   1.425       .  A
C908       C3064   1.520       .  S
C909        H912   1.082       .  S
C913        C914   1.446       .  A
C913        C918   1.417       .  A
C913       C3208   1.525       .  S
C914        C915   1.440       .  A
C914        H919   1.081       .  S
C915        C916   1.395       .  A
C915       C3328   1.504       .  S
C916        C917   1.386       .  A
C916        H920   1.085       .  S
C917        C918   1.381       .  A
C917       C3136   1.494       .  S
C918        H921   1.078       .  S
C922        C923   1.407       .  A
C922        C927   1.444       .  A
C922       C3316   1.517       .  S
C923        C924   1.380       .  A
C923        H928   1.075       .  S
C924        C925   1.379       .  A
C924       C3124   1.493       .  S
C925        C926   1.401       .  A
C925        H929   1.085       .  S
C926        C927   1.442       .  A
C926       C3049   1.501       .  S
C927        H930   1.082       .  S
C931        C932   1.447       .  A
C931        C936   1.448       .  A
C931       C3061   1.505       .  S
C932        C933   1.446       .  A
C932       C3076   1.571       .  S
C933        C934   1.436       .  A
C933       C3001   1.493       .  S
C934        C935   1.434       .  A
C934       C3013   1.530       .  S
C935        C936   1.437       .  A
C935       C3025   1.523       .  S
C936       C3037   1.523       .  S
C937        C938   1.451       .  A
C937        C942   1.446       .  A
C937       C2965   1.514       .  S
C938        C939   1.442       .  A
C938       C4168   1.520       .  S
C939        C940   1.428       .  A
C939       C4144   1.526       .  S
C940        C941   1.434       .  A
C940       C2977   1.519   1_556  S
C941        C942   1.443       .  A
C941       C2992   1.506   1_556  S
C942       C2953   1.550       .  S
C943        C944   1.421       .  A
C943        C948   1.426       .  A
C943       C2905   1.512       .  S
C944        C945   1.437       .  A
C944       C4513   1.509       .  S
C945        C946   1.444       .  A
C945       C4456   1.517       .  S
C946        C947   1.436       .  A
C946       C2941   1.519       .  S
C947        C948   1.436       .  A
C947       C2929   1.521       .  S
C948       C2917   1.502       .  S
O949       Mg951   2.135       .  S
O949       Mg957   2.165       .  S
O949        C984   1.237   1_554  S
C950        O963   1.239       .  S
C950        O987   1.275       .  A
C950        H989   1.081       .  S
Mg951       O980   2.108       .  S
Mg951       O995   2.224       .  S
Mg951       O991   2.227       .  S
Mg951       O962   2.305       .  S
O952       Mg994   2.110   1_556  S
O952       Mg977   2.077       .  S
O952        C973   1.243       .  S
O953        C984   1.264       .  A
O953       Mg977   2.271       .  S
C954       C2881   1.453       .  S
C954        O956   1.269       .  A
C954        O968   1.263       .  A
O955        C983   1.273       .  A
O955       Mg957   2.327       .  S
O956       Mg988   2.256       .  S
Mg957       O963   2.126       .  S
Mg957       O971   2.335       .  S
Mg957       O959   2.225   1_554  S
C958       C2845   1.467       .  S
C958        O996   1.264       .  A
C958        O964   1.251   1_554  A
O959        C966   1.266       .  A
H960        C973   1.081       .  S
C961        O975   1.234       .  S
C961        O976   1.265       .  A
C961        H986   1.081       .  S
O962        C985   1.272       .  A
O963       Mg977   2.164   1_554  S
O964       Mg994   2.235   1_556  S
C965       C2833   1.445       .  S
C965        O978   1.262       .  A
C965        O970   1.263       .  A
C966       C2857   1.434       .  S
C966        O993   1.262       .  A
Mg967       O974   2.120       .  S
Mg967       O975   2.144       .  S
Mg967       O968   2.179       .  S
Mg967       O969   2.324   1_554  S
Mg967       O996   2.333       .  S
O969        C973   1.277       .  A
O970       Mg977   2.189       .  S
O971        C990   1.261       .  A
O972        C992   1.272       .  A
O972       Mg988   2.254       .  S
O974       Mg988   2.193       .  S
O974        C985   1.238       .  S
O975       Mg994   2.091       .  S
O976       Mg988   2.283       .  S
Mg977       O993   2.225       .  S
O978       Mg994   2.241   1_556  S
H979        C984   1.078       .  S
O980       Mg988   2.079       .  S
O980        C983   1.238       .  S
H981        C983   1.081       .  S
H982        C985   1.081       .  S
O987       Mg994   2.322       .  S
C990       C2869   1.466       .  S
C990        O995   1.249       .  A
O991        C992   1.263       .  A
C992       C2896   1.445       .  S
C997        C998   1.443       .  A
C997       C1002   1.405       .  A
C997       C2821   1.508       .  S
C998        C999   1.439       .  A
C998       H1003   1.082       .  S
C999       C1000   1.396       .  A
C999       C4060   1.513       .  S
C1000      C1001   1.376       .  A
C1000      H1004   1.080       .  S
C1001      C1002   1.388       .  A
C1001      C2836   1.469       .  S
C1002      H1005   1.085       .  S
C1006      C1007   1.438       .  A
C1006      C1011   1.402       .  A
C1006      C2809   1.496       .  S
C1007      C1008   1.434       .  A
C1007      H1012   1.082       .  S
C1008      C1009   1.409       .  A
C1008      C2968   1.520       .  S
C1009      C1010   1.391       .  A
C1009      H1013   1.077       .  S
C1010      C1011   1.379       .  A
C1010      C2860   1.468       .  S
C1011      H1014   1.086       .  S
C1015      C1016   1.435       .  A
C1015      C1020   1.418       .  A
C1015      C5233   1.515       .  S
C1016      C1017   1.426   1_554  A
C1016      H1021   1.082   1_554  S
C1017      C1018   1.391   1_556  A
C1017      C2956   1.504       .  S
C1018      C1019   1.380       .  A
C1018      H1022   1.077       .  S
C1019      C1020   1.404       .  A
C1019      C2872   1.480       .  S
C1020      H1023   1.079       .  S
C1024      C1025   1.398       .  A
C1024      C1029   1.428       .  A
C1024      C5248   1.492       .  S
C1025      C1026   1.377       .  A
C1025      H1030   1.085       .  S
C1026      C1027   1.406       .  A
C1026      C2893   1.479       .  S
C1027      C1028   1.419       .  A
C1027      H1031   1.062       .  S
C1028      C1029   1.430       .  A
C1028      C2800   1.542       .  S
C1029      H1032   1.082       .  S
C1033      C1034   1.424       .  A
C1033      C1038   1.395       .  A
C1033      C2920   1.486       .  S
C1034      C1035   1.426       .  A
C1034      H1039   1.082       .  S
C1035      C1036   1.415       .  A
C1035      C4072   1.520       .  S
C1036      C1037   1.403       .  A
C1036      H1040   1.083       .  S
C1037      C1038   1.386       .  A
C1037      C2848   1.474       .  S
C1038      H1041   1.087       .  S
C1042      C1043   1.411       .  A
C1042      C1047   1.442       .  A
C1042      C2908   1.509       .  S
C1043      C1044   1.392       .  A
C1043      H1048   1.083       .  S
C1044      C1045   1.384       .  A
C1044      C2884   1.482       .  S
C1045      C1046   1.399       .  A
C1045      H1049   1.081       .  S
C1046      C1047   1.436       .  A
C1046      C2785   1.515       .  S
C1047      H1050   1.082       .  S
C1051      C1052   1.431       .  A
C1051      C1056   1.441       .  A
C1051      C3700   1.509       .  S
C1052      C1053   1.424       .  A
C1052      C3676   1.512       .  S
C1053      C1054   1.437       .  A
C1053      C2776   1.517       .  S
C1054      C1055   1.447       .  A
C1054      C2764   1.519       .  S
C1055      C1056   1.446       .  A
C1055      C2797   1.519       .  S
C1056      C2788   1.541       .  S
O1057     Mg1059   2.127   1_565  S
O1057     Mg1065   2.145       .  S
O1057      C1092   1.240       .  S
C1058      O1071   1.241   1_545  S
C1058      O1095   1.278       .  A
C1058      H1097   1.081   1_545  S
Mg1059     O1088   2.297       .  S
Mg1059     O1103   2.266   1_545  S
Mg1059     O1099   2.365       .  S
Mg1059     O1070   2.270       .  S
O1060     Mg1102   2.172   1_565  S
O1060     Mg1085   2.106       .  S
O1060      C1081   1.237       .  S
O1061      C1092   1.274       .  A
O1061     Mg1085   2.316       .  S
C1062      C2737   1.443       .  S
C1062      O1064   1.259       .  A
C1062      O1076   1.248       .  A
O1063      C1091   1.261       .  A
O1063     Mg1065   2.242   1_545  S
O1064     Mg1096   2.268       .  S
Mg1065     O1071   2.114       .  S
Mg1065     O1079   2.237       .  S
Mg1065     O1067   2.208       .  S
C1066      C2749   1.467       .  S
C1066      O1104   1.259       .  A
C1066      O1072   1.271       .  A
O1067      C1074   1.254       .  A
H1068      C1081   1.080       .  S
C1069      O1083   1.243       .  S
C1069      O1084   1.281       .  A
C1069      H1094   1.081       .  S
O1070      C1093   1.263       .  A
O1071     Mg1085   2.102       .  S
O1072     Mg1102   2.282       .  S
C1073      C2713   1.470       .  S
C1073      O1086   1.265       .  A
C1073      O1078   1.263       .  A
C1074      C2689   1.431       .  S
C1074      O1101   1.270       .  A
Mg1075     O1082   2.055       .  S
Mg1075     O1083   2.119       .  S
Mg1075     O1076   2.216       .  S
Mg1075     O1077   2.309       .  S
Mg1075     O1104   2.189       .  S
O1077      C1081   1.268   1_545  A
O1078     Mg1085   2.255       .  S
O1079      C1098   1.267       .  A
O1080      C1100   1.239       .  A
O1080     Mg1096   2.098       .  S
O1082     Mg1096   2.119       .  S
O1082      C1093   1.236       .  S
O1083     Mg1102   2.121       .  S
O1084     Mg1096   2.348       .  S
Mg1085     O1101   2.278       .  S
O1086     Mg1102   2.300   1_565  S
H1087      C1092   1.081       .  S
O1088     Mg1096   2.033       .  S
O1088      C1091   1.233       .  S
H1089      C1091   1.081       .  S
H1090      C1093   1.081       .  S
O1095     Mg1102   2.329       .  S
C1098      C2701   1.479   1_565  S
C1098      O1103   1.264       .  A
O1099      C1100   1.259       .  A
C1100      C2725   1.462       .  S
C1105      C1106   1.440       .  A
C1105      C1110   1.411       .  A
C1105      C4120   1.506       .  S
C1106      C1107   1.434       .  A
C1106      H1111   1.082       .  S
C1107      C1108   1.398       .  A
C1107      C3040   1.505       .  S
C1108      C1109   1.390       .  A
C1108      H1112   1.080       .  S
C1109      C1110   1.396       .  A
C1109      C2692   1.502       .  S
C1110      H1113   1.084       .  S
C1114      C1115   1.439       .  A
C1114      C1119   1.399       .  A
C1114      C2980   1.517       .  S
C1115      C1116   1.442       .  A
C1115      H1120   1.082       .  S
C1116      C1117   1.411       .  A
C1116      C3028   1.516       .  S
C1117      C1118   1.390       .  A
C1117      H1121   1.084       .  S
C1118      C1119   1.388       .  A
C1118      C2716   1.497       .  S
C1119      H1122   1.083       .  S
C1123      C1124   1.401       .  A
C1123      C1128   1.440       .  A
C1123      C2773   1.501       .  S
C1124      C1125   1.386       .  A
C1124      H1129   1.086       .  S
C1125      C1126   1.397       .  A
C1125      C2728   1.476       .  S
C1126      C1127   1.397       .  A
C1126      H1130   1.076       .  S
C1127      C1128   1.436       .  A
C1127      C2677   1.538       .  S
C1128      H1131   1.081       .  S
C1132      C1133   1.435       .  A
C1132      C1137   1.410       .  A
C1132      C5152   1.522   1_565  S
C1133      C1134   1.432       .  A
C1133      H1138   1.081   1_565  S
C1134      C1135   1.403       .  A
C1134      C2989   1.491       .  S
C1135      C1136   1.390       .  A
C1135      H1139   1.086       .  S
C1136      C1137   1.385       .  A
C1136      C2752   1.500       .  S
C1137      H1140   1.075       .  S
C1141      C1142   1.431       .  A
C1141      C1146   1.402       .  A
C1141      C5140   1.487       .  S
C1142      C1143   1.425       .  A
C1142      H1147   1.082       .  S
C1143      C1144   1.393       .  A
C1143      C2761   1.502       .  S
C1144      C1145   1.383       .  A
C1144      H1148   1.086       .  S
C1145      C1146   1.386       .  A
C1145      C2740   1.460       .  S
C1146      H1149   1.085       .  S
C1150      C1151   1.408       .  A
C1150      C1155   1.427       .  A
C1150      C4105   1.504   1_545  S
C1151      C1152   1.401       .  A
C1151      H1156   1.080       .  S
C1152      C1153   1.398       .  A
C1152      C2704   1.515       .  S
C1153      C1154   1.403       .  A
C1153      H1157   1.082       .  S
C1154      C1155   1.429       .  A
C1154      C2665   1.492       .  S
C1155      H1158   1.082   1_545  S
C1159      C1160   1.423       .  A
C1159      C1164   1.427       .  A
C1159      C4729   1.499       .  S
C1160      C1161   1.429       .  A
C1160      C4717   1.501       .  S
C1161      C1162   1.432       .  A
C1161      C3052   1.518   1_545  S
C1162      C1163   1.442       .  A
C1162      C3088   1.505   1_545  S
C1163      C1164   1.428       .  A
C1163      C2668   1.509       .  S
C1164      C2680   1.515       .  S
O1165     Mg1167   2.123       .  S
O1165     Mg1173   2.155       .  S
O1165      C1200   1.241       .  S
C1166      O1179   1.243       .  S
C1166      O1203   1.278       .  A
C1166      H1205   1.081       .  S
Mg1167     O1196   2.162       .  S
Mg1167     O1211   2.264       .  S
Mg1167     O1207   2.326       .  S
Mg1167     O1178   2.341       .  S
O1168     Mg1210   2.194       .  S
O1168     Mg1193   2.114       .  S
O1168      C1189   1.237       .  S
O1169      C1200   1.277       .  A
O1169     Mg1193   2.318       .  S
C1170      C2641   1.457       .  S
C1170      O1172   1.266       .  A
C1170      O1184   1.244       .  A
O1171      C1199   1.269       .  A
O1171     Mg1173   2.288       .  S
O1172     Mg1204   2.320       .  S
Mg1173     O1179   2.130       .  S
Mg1173     O1187   2.303       .  S
Mg1173     O1175   2.277       .  S
C1174      C2605   1.470       .  S
C1174      O1212   1.264       .  A
C1174      O1180   1.269       .  A
O1175      C1182   1.271       .  A
H1176      C1189   1.080       .  S
C1177      O1191   1.244       .  S
C1177      O1192   1.282       .  A
C1177      H1202   1.081       .  S
O1178      C1201   1.280       .  A
O1179     Mg1193   2.137       .  S
O1180     Mg1210   2.295       .  S
C1181      C2593   1.445       .  S
C1181      O1194   1.258       .  A
C1181      O1186   1.255       .  A
C1182      C2629   1.455       .  S
C1182      O1209   1.264       .  A
Mg1183     O1190   2.126       .  S
Mg1183     O1191   2.113       .  S
Mg1183     O1184   2.240       .  S
Mg1183     O1185   2.290       .  S
Mg1183     O1212   2.248       .  S
O1185      C1189   1.267       .  A
O1186     Mg1193   2.254       .  S
O1187      C1206   1.275       .  A
O1188      C1208   1.254       .  A
O1188     Mg1204   2.259       .  S
O1190     Mg1204   2.101       .  S
O1190      C1201   1.244       .  S
O1191     Mg1210   2.101       .  S
O1192     Mg1204   2.354       .  S
Mg1193     O1209   2.226       .  S
O1194     Mg1210   2.290       .  S
H1195      C1200   1.081       .  S
O1196     Mg1204   2.116       .  S
O1196      C1199   1.235       .  S
H1197      C1199   1.081       .  S
H1198      C1201   1.081       .  S
O1203     Mg1210   2.338       .  S
C1206      C2617   1.477       .  S
C1206      O1211   1.274       .  A
O1207      C1208   1.266       .  A
C1208      C2653   1.455       .  S
C1213      C1214   1.432       .  A
C1213      C1218   1.397       .  A
C1213      C2581   1.490       .  S
C1214      C1215   1.436       .  A
C1214      H1219   1.082       .  S
C1215      C1216   1.414       .  A
C1215      C3424   1.513       .  S
C1216      C1217   1.386       .  A
C1216      H1220   1.075       .  S
C1217      C1218   1.381       .  A
C1217      C2632   1.485       .  S
C1218      H1221   1.086       .  S
C1222      C1223   1.422       .  A
C1222      C1227   1.397       .  A
C1222      C3232   1.491       .  S
C1223      C1224   1.422       .  A
C1223      H1228   1.083       .  S
C1224      C1225   1.411       .  A
C1224      C3436   1.509       .  S
C1225      C1226   1.403       .  A
C1225      H1229   1.081       .  S
C1226      C1227   1.396       .  A
C1226      C2608   1.493       .  S
C1227      H1230   1.083       .  S
C1231      C1232   1.423       .  A
C1231      C1236   1.406       .  A
C1231      C2932   1.512       .  S
C1232      C1233   1.427       .  A
C1232      H1237   1.083       .  S
C1233      C1234   1.403       .  A
C1233      C3412   1.490       .  S
C1234      C1235   1.391       .  A
C1234      H1238   1.085       .  S
C1235      C1236   1.399       .  A
C1235      C2620   1.474       .  S
C1236      H1239   1.084       .  S
C1240      C1241   1.434       .  A
C1240      C1245   1.405       .  A
C1240      C2569   1.513       .  S
C1241      C1242   1.435       .  A
C1241      H1246   1.082       .  S
C1242      C1243   1.396       .  A
C1242      C3448   1.496       .  S
C1243      C1244   1.383       .  A
C1243      H1247   1.087       .  S
C1244      C1245   1.395       .  A
C1244      C2596   1.470       .  S
C1245      H1248   1.084       .  S
C1249      C1250   1.428       .  A
C1249      C1254   1.391       .  A
C1249      C2944   1.492       .  S
C1250      C1251   1.428       .  A
C1250      H1255   1.082       .  S
C1251      C1252   1.404       .  A
C1251      C3280   1.500       .  S
C1252      C1253   1.401       .  A
C1252      H1256   1.085       .  S
C1253      C1254   1.387       .  A
C1253      C2656   1.477       .  S
C1254      H1257   1.086       .  S
C1258      C1259   1.436       .  A
C1258      C1263   1.405       .  A
C1258      C3220   1.486       .  S
C1259      C1260   1.431       .  A
C1259      H1264   1.082       .  S
C1260      C1261   1.403       .  A
C1260      C3268   1.512       .  S
C1261      C1262   1.387       .  A
C1261      H1265   1.085       .  S
C1262      C1263   1.385       .  A
C1262      C2644   1.481       .  S
C1263      H1266   1.079       .  S
C1267      C1268   1.429       .  A
C1267      C1272   1.430       .  A
C1267      C2584   1.494       .  S
C1268      C1269   1.421       .  A
C1268      C2824   1.510       .  S
C1269      C1270   1.425       .  A
C1269      C2812   1.500       .  S
C1270      C1271   1.422       .  A
C1270      C2545   1.495       .  S
C1271      C1272   1.430       .  A
C1271      C2557   1.508       .  S
C1272      C2572   1.509       .  S
C1273      C1274   1.440       .  A
C1273      C1278   1.444       .  A
C1273      C2497   1.504       .  S
C1274      C1275   1.428       .  A
C1274      C4708   1.514       .  S
C1275      C1276   1.431       .  A
C1275      C4684   1.528       .  S
C1276      C1277   1.433       .  A
C1276      C2533   1.497   1_655  S
C1277      C1278   1.438       .  A
C1277      C2524   1.516   1_655  S
C1278      C2512   1.536       .  S
O1279     Mg1281   2.081       .  S
O1279     Mg1287   2.073       .  S
O1279      C1314   1.239       .  S
C1280      O1293   1.242       .  S
C1280      O1317   1.280   1_455  A
C1280      H1319   1.081       .  S
Mg1281     O1310   2.108   1_455  S
Mg1281     O1325   2.222       .  S
Mg1281     O1321   2.322       .  S
Mg1281     O1292   2.329       .  S
O1282     Mg1324   2.150   1_455  S
O1282     Mg1307   2.100       .  S
O1282      C1303   1.236       .  S
O1283      C1314   1.278       .  A
O1283     Mg1307   2.382       .  S
C1284      C2449   1.456       .  S
C1284      O1286   1.269       .  A
C1284      O1298   1.270       .  A
O1285      C1313   1.272   1_455  A
O1285     Mg1287   2.346       .  S
O1286     Mg1318   2.235       .  S
Mg1287     O1293   2.114       .  S
Mg1287     O1301   2.315       .  S
Mg1287     O1289   2.234       .  S
C1288      C2473   1.475       .  S
C1288      O1326   1.272       .  A
C1288      O1294   1.268       .  A
O1289      C1296   1.244       .  A
H1290      C1303   1.080       .  S
C1291      O1305   1.236       .  S
C1291      O1306   1.271       .  A
C1291      H1316   1.081       .  S
O1292      C1315   1.277   1_455  A
O1293     Mg1307   2.108       .  S
O1294     Mg1324   2.232       .  S
C1295      C2488   1.468       .  S
C1295      O1308   1.262       .  A
C1295      O1300   1.256       .  A
C1296      C2461   1.446       .  S
C1296      O1323   1.264       .  A
Mg1297     O1304   2.106       .  S
Mg1297     O1305   2.158       .  S
Mg1297     O1298   2.284       .  S
Mg1297     O1299   2.272   1_655  S
Mg1297     O1326   2.251       .  S
O1299      C1303   1.265       .  A
O1300     Mg1307   2.248       .  S
O1301      C1320   1.281       .  A
O1302      C1322   1.256       .  A
O1302     Mg1318   2.234       .  S
O1304     Mg1318   2.132       .  S
O1304      C1315   1.242       .  S
O1305     Mg1324   2.124       .  S
O1306     Mg1318   2.309       .  S
Mg1307     O1323   2.339       .  S
O1308     Mg1324   2.318   1_455  S
H1309      C1314   1.081       .  S
O1310     Mg1318   2.080       .  S
O1310      C1313   1.230       .  S
H1311      C1313   1.081       .  S
H1312      C1315   1.081       .  S
O1317     Mg1324   2.353       .  S
C1320      C2440   1.459       .  S
C1320      O1325   1.277       .  A
O1321      C1322   1.264   1_455  A
C1322      C2425   1.459       .  S
C1327      C1328   1.433       .  A
C1327      C1332   1.415       .  A
C1327      C2560   1.518       .  S
C1328      C1329   1.428       .  A
C1328      H1333   1.082       .  S
C1329      C1330   1.400       .  A
C1329      C4876   1.493       .  S
C1330      C1331   1.385       .  A
C1330      H1334   1.087       .  S
C1331      C1332   1.396       .  A
C1331      C2428   1.478       .  S
C1332      H1335   1.077       .  S
C1336      C1337   1.433       .  A
C1336      C1341   1.408       .  A
C1336      C5224   1.496       .  S
C1337      C1338   1.428       .  A
C1337      H1342   1.082   1_455  S
C1338      C1339   1.410       .  A
C1338      C2509   1.509   1_455  S
C1339      C1340   1.392       .  A
C1339      H1343   1.081       .  S
C1340      C1341   1.397       .  A
C1340      C2476   1.507       .  S
C1341      H1344   1.085       .  S
C1345      C1346   1.432       .  A
C1345      C1350   1.397       .  A
C1345      C2548   1.483       .  S
C1346      C1347   1.432       .  A
C1346      H1351   1.082       .  S
C1347      C1348   1.413       .  A
C1347      C2500   1.521       .  S
C1348      C1349   1.386       .  A
C1348      H1352   1.072       .  S
C1349      C1350   1.374       .  A
C1349      C2452   1.478       .  S
C1350      H1353   1.084       .  S
C1354      C1355   1.400       .  A
C1354      C1359   1.437       .  A
C1354      C5212   1.497       .  S
C1355      C1356   1.385       .  A
C1355      H1360   1.086       .  S
C1356      C1357   1.401       .  A
C1356      C2485   1.490       .  S
C1357      C1358   1.419       .  A
C1357      H1361   1.077       .  S
C1358      C1359   1.438       .  A
C1358      C2413   1.529       .  S
C1359      H1362   1.082       .  S
C1363      C1364   1.406       .  A
C1363      C1368   1.438       .  A
C1363      C3256   1.472       .  S
C1364      C1365   1.381       .  A
C1364      H1369   1.085       .  S
C1365      C1366   1.381       .  A
C1365      C2464   1.492       .  S
C1366      C1367   1.409       .  A
C1366      H1370   1.066       .  S
C1367      C1368   1.439       .  A
C1367      C2401   1.536       .  S
C1368      H1371   1.078       .  S
C1372      C1373   1.403       .  A
C1372      C1377   1.432       .  A
C1372      C3244   1.503       .  S
C1373      C1374   1.397       .  A
C1373      H1378   1.086       .  S
C1374      C1375   1.390       .  A
C1374      C2437   1.467       .  S
C1375      C1376   1.403       .  A
C1375      H1379   1.082       .  S
C1376      C1377   1.429       .  A
C1376      C4888   1.512   1_455  S
C1377      H1380   1.082   1_455  S
C1381      C1382   1.443       .  A
C1381      C1386   1.446       .  A
C1381      C3532   1.535       .  S
C1382      C1383   1.438       .  A
C1382      C3556   1.519       .  S
C1383      C1384   1.435       .  A
C1383      C2389   1.519       .  S
C1384      C1385   1.438       .  A
C1384      C2377   1.500       .  S
C1385      C1386   1.435       .  A
C1385      C2416   1.542       .  S
C1386      C2404   1.502       .  S
O1387     Mg1389   2.012   1_545  S
O1387     Mg1395   2.139       .  S
O1387      C1422   1.232       .  S
C1388      O1401   1.228       .  S
C1388      O1425   1.257       .  A
C1388      H1427   1.081       .  S
Mg1389     O1418   2.288       .  S
Mg1389     O1433   2.099   1_565  S
Mg1389     O1429   2.224       .  S
Mg1389     O1400   2.305       .  S
O1390     Mg1432   2.189   1_545  S
O1390     Mg1415   2.135       .  S
O1390      C1411   1.240   1_545  S
O1391      C1422   1.257       .  A
O1391     Mg1415   2.234       .  S
C1392      C2317   1.460       .  S
C1392      O1394   1.263       .  A
C1392      O1406   1.239       .  A
O1393      C1421   1.273       .  A
O1393     Mg1395   2.275   1_565  S
O1394     Mg1426   2.361       .  S
Mg1395     O1401   2.068       .  S
Mg1395     O1409   2.300       .  S
Mg1395     O1397   2.148       .  S
C1396      C2308   1.456       .  S
C1396      O1434   1.254       .  A
C1396      O1402   1.264       .  A
O1397      C1404   1.261       .  A
H1398      C1411   1.081   1_545  S
C1399      O1413   1.245       .  S
C1399      O1414   1.285       .  A
C1399      H1424   1.081       .  S
O1400      C1423   1.273       .  A
O1401     Mg1415   2.191       .  S
O1402     Mg1432   2.193       .  S
C1403      C2365   1.436       .  S
C1403      O1416   1.268       .  A
C1403      O1408   1.269       .  A
C1404      C2353   1.452       .  S
C1404      O1431   1.277       .  A
Mg1405     O1412   2.112       .  S
Mg1405     O1413   2.128       .  S
Mg1405     O1406   2.232       .  S
Mg1405     O1407   2.319       .  S
Mg1405     O1434   2.235       .  S
O1407      C1411   1.275       .  A
O1408     Mg1415   2.217       .  S
O1409      C1428   1.263       .  A
O1410      C1430   1.272       .  A
O1410     Mg1426   2.227       .  S
O1412     Mg1426   2.122       .  S
O1412      C1423   1.237       .  S
O1413     Mg1432   2.118       .  S
O1414     Mg1426   2.390       .  S
Mg1415     O1431   2.324       .  S
O1416     Mg1432   2.231   1_545  S
H1417      C1422   1.081       .  S
O1418     Mg1426   2.296       .  S
O1418      C1421   1.263       .  S
H1419      C1421   1.081       .  S
H1420      C1423   1.081       .  S
O1425     Mg1432   2.258   1_545  S
C1428      C2341   1.444       .  S
C1428      O1433   1.250       .  A
O1429      C1430   1.252       .  A
C1430      C2329   1.426       .  S
C1435      C1436   1.405       .  A
C1435      C1440   1.444       .  A
C1435      C4660   1.500       .  S
C1436      C1437   1.394       .  A
C1436      H1441   1.081       .  S
C1437      C1438   1.385       .  A
C1437      C2320   1.478       .  S
C1438      C1439   1.404       .  A
C1438      H1442   1.078       .  S
C1439      C1440   1.441       .  A
C1439      C2293   1.533       .  S
C1440      H1443   1.081       .  S
C1444      C1445   1.394       .  A
C1444      C1449   1.440       .  A
C1444      C4669   1.509       .  S
C1445      C1446   1.372       .  A
C1445      H1450   1.077       .  S
C1446      C1447   1.396       .  A
C1446      C2305   1.489   1_545  S
C1447      C1448   1.411       .  A
C1447      H1451   1.079       .  S
C1448      C1449   1.442       .  A
C1448      C2281   1.514       .  S
C1449      H1452   1.082       .  S
C1453      C1454   1.396       .  A
C1453      C1458   1.426       .  A
C1453      C2536   1.477       .  S
C1454      C1455   1.380       .  A
C1454      H1459   1.087       .  S
C1455      C1456   1.387       .  A
C1455      C2332   1.452       .  S
C1456      C1457   1.401       .  A
C1456      H1460   1.085       .  S
C1457      C1458   1.422       .  A
C1457      C2269   1.499       .  S
C1458      H1461   1.082       .  S
C1462      C1463   1.430       .  A
C1462      C1467   1.412       .  A
C1462      C3508   1.490       .  S
C1463      C1464   1.431       .  A
C1463      H1468   1.081       .  S
C1464      C1465   1.403       .  A
C1464      C2380   1.531       .  S
C1465      C1466   1.384       .  A
C1465      H1469   1.070       .  S
C1466      C1467   1.402       .  A
C1466      C2356   1.480       .  S
C1467      H1470   1.083       .  S
C1471      C1472   1.427       .  A
C1471      C1476   1.401       .  A
C1471      C3520   1.506   1_565  S
C1472      C1473   1.432       .  A
C1472      H1477   1.082   1_565  S
C1473      C1474   1.408       .  A
C1473      C2521   1.496       .  S
C1474      C1475   1.402       .  A
C1474      H1478   1.084       .  S
C1475      C1476   1.390       .  A
C1475      C2344   1.485       .  S
C1476      H1479   1.082       .  S
C1480      C1481   1.412       .  A
C1480      C1485   1.428       .  A
C1480      C2392   1.515       .  S
C1481      C1482   1.395       .  A
C1481      H1486   1.080       .  S
C1482      C1483   1.382       .  A
C1482      C2368   1.461       .  S
C1483      C1484   1.397       .  A
C1483      H1487   1.086       .  S
C1484      C1485   1.426       .  A
C1484      C2257   1.487       .  S
C1485      H1488   1.082       .  S
C1489      C1490   1.421       .  A
C1489      C1494   1.430       .  A
C1489      C4204   1.525       .  S
C1490      C1491   1.442       .  A
C1490      C4156   1.509       .  S
C1491      C1492   1.447       .  A
C1491      C2233   1.513   1_545  S
C1492      C1493   1.441       .  A
C1492      C2245   1.532   1_545  S
C1493      C1494   1.436       .  A
C1493      C2284   1.519       .  S
C1494      C2260   1.497       .  S
O1495     Mg1497   2.122       .  S
O1495     Mg1503   2.187       .  S
O1495      C1530   1.238       .  S
C1496      O1509   1.243       .  S
C1496      O1533   1.281       .  A
C1496      H1535   1.081       .  S
Mg1497     O1526   2.128       .  S
Mg1497     O1541   2.248       .  S
Mg1497     O1537   2.317       .  S
Mg1497     O1508   2.356       .  S
O1498     Mg1540   2.108       .  S
O1498     Mg1523   2.101       .  S
O1498      C1519   1.239       .  S
O1499      C1530   1.268       .  A
O1499     Mg1523   2.301       .  S
C1500      C2197   1.471       .  S
C1500      O1502   1.257       .  A
C1500      O1514   1.267       .  A
O1501      C1529   1.276       .  A
O1501     Mg1503   2.328       .  S
O1502     Mg1534   2.218       .  S
Mg1503     O1509   2.178       .  S
Mg1503     O1517   2.303       .  S
Mg1503     O1505   2.315       .  S
C1504      C2209   1.442       .  S
C1504      O1542   1.268       .  A
C1504      O1510   1.265       .  A
O1505      C1512   1.266       .  A
H1506      C1519   1.080       .  S
C1507      O1521   1.235       .  S
C1507      O1522   1.264       .  A
C1507      H1532   1.081       .  S
O1508      C1531   1.279       .  A
O1509     Mg1523   2.101       .  S
O1510     Mg1540   2.287       .  S
C1511      C2221   1.442       .  S
C1511      O1524   1.264       .  A
C1511      O1516   1.253       .  A
C1512      C2161   1.478       .  S
C1512      O1539   1.255       .  A
Mg1513     O1520   2.149       .  S
Mg1513     O1521   2.162       .  S
Mg1513     O1514   2.312       .  S
Mg1513     O1515   2.303       .  S
Mg1513     O1542   2.238       .  S
O1515      C1519   1.273       .  A
O1516     Mg1523   2.218       .  S
O1517      C1536   1.264       .  A
O1518      C1538   1.247       .  A
O1518     Mg1534   2.203       .  S
O1520     Mg1534   2.113       .  S
O1520      C1531   1.240       .  S
O1521     Mg1540   2.067       .  S
O1522     Mg1534   2.285       .  S
Mg1523     O1539   2.205       .  S
O1524     Mg1540   2.233       .  S
H1525      C1530   1.077       .  S
O1526     Mg1534   2.139       .  S
O1526      C1529   1.240       .  S
H1527      C1529   1.080       .  S
H1528      C1531   1.081       .  S
O1533     Mg1540   2.351       .  S
C1536      C2173   1.476       .  S
C1536      O1541   1.264       .  A
O1537      C1538   1.264       .  A
C1538      C2185   1.468       .  S
C1543      C1544   1.428       .  A
C1543      C1548   1.396       .  A
C1543      C2149   1.511       .  S
C1544      C1545   1.433       .  A
C1544      H1549   1.082       .  S
C1545      C1546   1.398       .  A
C1545      C3388   1.488       .  S
C1546      C1547   1.381       .  A
C1546      H1550   1.086       .  S
C1547      C1548   1.392       .  A
C1547      C2212   1.463       .  S
C1548      H1551   1.083       .  S
C1552      C1553   1.438       .  A
C1552      C1557   1.399       .  A
C1552      C3376   1.505       .  S
C1553      C1554   1.437       .  A
C1553      H1558   1.082       .  S
C1554      C1555   1.413       .  A
C1554      C2137   1.523       .  S
C1555      C1556   1.397       .  A
C1555      H1559   1.079       .  S
C1556      C1557   1.396       .  A
C1556      C2164   1.515       .  S
C1557      H1560   1.083       .  S
C1561      C1562   1.448       .  A
C1561      C1566   1.402       .  A
C1561      C3364   1.502       .  S
C1562      C1563   1.448       .  A
C1562      H1567   1.081       .  S
C1563      C1564   1.420       .  A
C1563      C2248   1.534       .  S
C1564      C1565   1.391       .  A
C1564      H1568   1.080       .  S
C1565      C1566   1.385       .  A
C1565      C2176   1.514       .  S
C1566      H1569   1.083       .  S
C1570      C1571   1.428       .  A
C1570      C1575   1.399       .  A
C1570      C2125   1.486       .  S
C1571      C1572   1.426       .  A
C1571      H1576   1.083       .  S
C1572      C1573   1.406       .  A
C1572      C3292   1.512       .  S
C1573      C1574   1.395       .  A
C1573      H1577   1.073       .  S
C1574      C1575   1.390       .  A
C1574      C2200   1.507       .  S
C1575      H1578   1.084       .  S
C1579      C1580   1.404       .  A
C1579      C1584   1.425       .  A
C1579      C3400   1.510       .  S
C1580      C1581   1.398       .  A
C1580      H1585   1.082       .  S
C1581      C1582   1.380       .  A
C1581      C2224   1.468       .  S
C1582      C1583   1.396       .  A
C1582      H1586   1.087       .  S
C1583      C1584   1.427       .  A
C1583      C2113   1.481       .  S
C1584      H1587   1.083       .  S
C1588      C1589   1.434       .  A
C1588      C1593   1.403       .  A
C1588      C3304   1.482       .  S
C1589      C1590   1.428       .  A
C1589      H1594   1.080       .  S
C1590      C1591   1.400       .  A
C1590      C2236   1.527       .  S
C1591      C1592   1.394       .  A
C1591      H1595   1.078       .  S
C1592      C1593   1.378       .  A
C1592      C2188   1.471       .  S
C1593      H1596   1.087       .  S
C1597      C1598   1.438       .  A
C1597      C1602   1.442       .  A
C1597      C2296   1.516       .  S
C1598      C1599   1.439       .  A
C1598      C2272   1.512       .  S
C1599      C1600   1.430       .  A
C1599      C2092   1.511       .  S
C1600      C1601   1.433       .  A
C1600      C2101   1.526       .  S
C1601      C1602   1.443       .  A
C1601      C2116   1.501       .  S
C1602      C2140   1.537       .  S
O1603     Mg1605   2.089       .  S
O1603     Mg1611   2.208   1_554  S
O1603      C1638   1.234       .  S
C1604      O1617   1.237       .  S
C1604      O1641   1.269       .  A
C1604      H1643   1.081       .  S
Mg1605     O1634   2.184       .  S
Mg1605     O1649   2.265       .  S
Mg1605     O1645   2.293       .  S
Mg1605     O1616   2.321       .  S
O1606     Mg1648   2.174       .  S
O1606     Mg1631   2.104   1_556  S
O1606      C1627   1.246   1_556  S
O1607      C1638   1.257       .  A
O1607     Mg1631   2.264       .  S
C1608      C2017   1.480       .  S
C1608      O1610   1.262       .  A
C1608      O1622   1.270       .  A
O1609      C1637   1.273       .  A
O1609     Mg1611   2.274       .  S
O1610     Mg1642   2.222       .  S
Mg1611     O1617   2.130       .  S
Mg1611     O1625   2.254   1_556  S
Mg1611     O1613   2.309   1_556  S
C1612      C2056   1.432       .  S
C1612      O1650   1.264       .  A
C1612      O1618   1.250       .  A
O1613      C1620   1.271       .  A
H1614      C1627   1.079       .  S
C1615      O1629   1.237       .  S
C1615      O1630   1.272       .  A
C1615      H1640   1.081       .  S
O1616      C1639   1.275       .  A
O1617     Mg1631   2.137   1_556  S
O1618     Mg1648   2.234       .  S
C1619      C2065   1.482       .  S
C1619      O1632   1.258       .  A
C1619      O1624   1.272       .  A
C1620      C2080   1.464       .  S
C1620      O1647   1.268       .  A
Mg1621     O1628   2.143   1_556  S
Mg1621     O1629   2.134       .  S
Mg1621     O1622   2.317       .  S
Mg1621     O1623   2.320   1_556  S
Mg1621     O1650   2.273       .  S
O1623      C1627   1.278       .  A
O1624     Mg1631   2.243   1_556  S
O1625      C1644   1.255       .  A
O1626      C1646   1.266       .  A
O1626     Mg1642   2.249   1_554  S
O1628     Mg1642   2.108   1_554  S
O1628      C1639   1.239       .  S
O1629     Mg1648   2.111       .  S
O1630     Mg1642   2.314       .  S
Mg1631     O1647   2.246       .  S
O1632     Mg1648   2.271       .  S
H1633      C1638   1.079       .  S
O1634     Mg1642   2.112   1_554  S
O1634      C1637   1.244   1_554  S
H1635      C1637   1.081       .  S
H1636      C1639   1.081       .  S
O1641     Mg1648   2.283       .  S
C1644      C2044   1.465       .  S
C1644      O1649   1.272       .  A
O1645      C1646   1.263       .  A
C1646      C2032   1.476       .  S
C1651      C1652   1.443       .  A
C1651      C1656   1.416       .  A
C1651      C2005   1.536       .  S
C1652      C1653   1.437       .  A
C1652      H1657   1.081       .  S
C1653      C1654   1.397       .  A
C1653      C3481   1.495       .  S
C1654      C1655   1.385       .  A
C1654      H1658   1.084       .  S
C1655      C1656   1.396       .  A
C1655      C2068   1.492       .  S
C1656      H1659   1.075       .  S
C1660      C1661   1.435       .  A
C1660      C1665   1.407       .  A
C1660      C4345   1.491       .  S
C1661      C1662   1.430       .  A
C1661      H1666   1.082       .  S
C1662      C1663   1.413       .  A
C1662      C2104   1.511       .  S
C1663      C1664   1.395       .  A
C1663      H1667   1.081       .  S
C1664      C1665   1.390       .  A
C1664      C2020   1.515       .  S
C1665      H1668   1.085       .  S
C1669      C1670   1.432       .  A
C1669      C1674   1.400       .  A
C1669      C1993   1.485       .  S
C1670      C1671   1.427       .  A
C1670      H1675   1.083       .  S
C1671      C1672   1.400       .  A
C1671      C3496   1.516       .  S
C1672      C1673   1.396       .  A
C1672      H1676   1.079       .  S
C1673      C1674   1.380       .  A
C1673      C2077   1.462       .  S
C1674      H1677   1.086       .  S
C1678      C1679   1.436       .  A
C1678      C1683   1.399       .  A
C1678      C1981   1.485       .  S
C1679      C1680   1.430       .  A
C1679      H1684   1.082       .  S
C1680      C1681   1.403       .  A
C1680      C2089   1.517       .  S
C1681      C1682   1.388       .  A
C1681      H1685   1.073       .  S
C1682      C1683   1.374       .  A
C1682      C2053   1.496       .  S
C1683      H1686   1.080       .  S
C1687      C1688   1.399       .  A
C1687      C1692   1.431       .  A
C1687      C1957   1.486       .  S
C1688      C1689   1.377       .  A
C1688      H1693   1.086       .  S
C1689      C1690   1.400       .  A
C1689      C2041   1.473       .  S
C1690      C1691   1.402       .  A
C1690      H1694   1.081       .  S
C1691      C1692   1.425       .  A
C1691      C1969   1.515       .  S
C1692      H1695   1.082       .  S
C1696      C1697   1.398       .  A
C1696      C1701   1.440       .  A
C1696      C4360   1.492       .  S
C1697      C1698   1.384       .  A
C1697      H1702   1.083       .  S
C1698      C1699   1.386       .  A
C1698      C2029   1.505       .  S
C1699      C1700   1.424       .  A
C1699      H1703   1.068       .  S
C1700      C1701   1.448       .  A
C1700      C1945   1.549   1_556  S
C1701      H1704   1.077   1_556  S
C1705      C1706   1.448       .  A
C1705      C1710   1.452       .  A
C1705      C4180   1.508       .  S
C1706      C1707   1.437       .  A
C1706      C1972   1.531       .  S
C1707      C1708   1.436       .  A
C1707      C1948   1.516       .  S
C1708      C1709   1.434       .  A
C1708      C2152   1.528       .  S
C1709      C1710   1.440       .  A
C1709      C2128   1.506       .  S
C1710      C4129   1.552       .  S
C1711      C1712   1.431       .  A
C1711      C1716   1.432       .  A
C1711      C1984   1.489   1_655  S
C1712      C1713   1.417       .  A
C1712      C4468   1.514       .  S
C1713      C1714   1.425       .  A
C1713      C4444   1.496       .  S
C1714      C1715   1.428       .  A
C1714      C1921   1.502   1_556  S
C1715      C1716   1.430       .  A
C1715      C1936   1.500   1_556  S
C1716      C2008   1.520   1_655  S
O1717     Mg1719   2.080   1_455  S
O1717     Mg1725   2.102   1_455  S
O1717      C1752   1.239       .  S
C1718      O1731   1.240       .  S
C1718      O1755   1.272       .  A
C1718      H1757   1.081       .  S
Mg1719     O1748   2.077       .  S
Mg1719     O1763   2.178       .  S
Mg1719     O1759   2.200       .  S
Mg1719     O1730   2.314   1_655  S
O1720     Mg1762   2.163       .  S
O1720     Mg1745   2.147       .  S
O1720      C1741   1.236       .  S
O1721      C1752   1.274       .  A
O1721     Mg1745   2.310       .  S
C1722      C1909   1.475       .  S
C1722      O1724   1.266       .  A
C1722      O1736   1.256       .  A
O1723      C1751   1.277       .  A
O1723     Mg1725   2.339       .  S
O1724     Mg1756   2.311   1_455  S
Mg1725     O1731   2.124       .  S
Mg1725     O1739   2.311       .  S
Mg1725     O1727   2.249       .  S
C1726      C1897   1.442       .  S
C1726      O1764   1.254       .  A
C1726      O1732   1.274       .  A
O1727      C1734   1.266       .  A
H1728      C1741   1.081       .  S
C1729      O1743   1.240       .  S
C1729      O1744   1.276       .  A
C1729      H1754   1.081       .  S
O1730      C1753   1.270       .  A
O1731     Mg1745   2.177   1_655  S
O1732     Mg1762   2.322       .  S
C1733      C1888   1.463   1_455  S
C1733      O1746   1.267       .  A
C1733      O1738   1.265       .  A
C1734      C1873   1.471       .  S
C1734      O1761   1.267   1_655  A
Mg1735     O1742   2.081       .  S
Mg1735     O1743   2.100   1_455  S
Mg1735     O1736   2.228       .  S
Mg1735     O1737   2.322       .  S
Mg1735     O1764   2.164       .  S
O1737      C1741   1.272       .  A
O1738     Mg1745   2.234       .  S
O1739      C1758   1.273       .  A
O1740      C1760   1.256   1_455  A
O1740     Mg1756   2.360   1_455  S
O1742     Mg1756   2.146   1_455  S
O1742      C1753   1.238       .  S
O1743     Mg1762   2.112   1_655  S
O1744     Mg1756   2.324       .  S
Mg1745     O1761   2.298       .  S
O1746     Mg1762   2.228       .  S
H1747      C1752   1.081       .  S
O1748     Mg1756   2.181       .  S
O1748      C1751   1.239       .  S
H1749      C1751   1.081       .  S
H1750      C1753   1.079       .  S
O1755     Mg1762   2.296   1_655  S
C1758      C1861   1.455       .  S
C1758      O1763   1.252       .  A
O1759      C1760   1.243       .  A
C1760      C1849   1.484   1_655  S
C1765      C1766   1.442       .  A
C1765      C1770   1.420       .  A
C1765      C4396   1.543   1_455  S
C1766      C1767   1.438       .  A
C1766      H1771   1.081   1_455  S
C1767      C1768   1.397       .  A
C1767      C3184   1.501       .  S
C1768      C1769   1.389       .  A
C1768      H1772   1.085       .  S
C1769      C1770   1.397       .  A
C1769      C1852   1.504       .  S
C1770      H1773   1.072       .  S
C1774      C1775   1.431   1_655  A
C1774      C1779   1.402       .  A
C1774      C1933   1.497       .  S
C1775      C1776   1.430       .  A
C1775      H1780   1.082       .  S
C1776      C1777   1.407   1_455  A
C1776      C5173   1.509       .  S
C1777      C1778   1.397       .  A
C1777      H1781   1.082       .  S
C1778      C1779   1.385       .  A
C1778      C1885   1.498       .  S
C1779      H1782   1.079       .  S
C1783      C1784   1.422       .  A
C1783      C1788   1.400       .  A
C1783      C4405   1.475       .  S
C1784      C1785   1.421       .  A
C1784      H1789   1.081       .  S
C1785      C1786   1.399       .  A
C1785      C3004   1.507       .  S
C1786      C1787   1.389       .  A
C1786      H1790   1.083       .  S
C1787      C1788   1.381       .  A
C1787      C1864   1.462       .  S
C1788      H1791   1.087       .  S
C1792      C1793   1.435       .  A
C1792      C1797   1.412       .  A
C1792      C1837   1.506       .  S
C1793      C1794   1.430       .  A
C1793      H1798   1.081       .  S
C1794      C1795   1.403       .  A
C1794      C5164   1.498       .  S
C1795      C1796   1.398       .  A
C1795      H1799   1.083       .  S
C1796      C1797   1.390       .  A
C1796      C1900   1.513       .  S
C1797      H1800   1.081       .  S
C1801      C1802   1.431       .  A
C1801      C1806   1.397       .  A
C1801      C1924   1.497       .  S
C1802      C1803   1.432       .  A
C1802      H1807   1.082       .  S
C1803      C1804   1.409       .  A
C1803      C3016   1.512       .  S
C1804      C1805   1.385       .  A
C1804      H1808   1.082       .  S
C1805      C1806   1.386       .  A
C1805      C1876   1.474       .  S
C1806      H1809   1.084       .  S
C1810      C1811   1.420       .  A
C1810      C1815   1.400       .  A
C1810      C1825   1.472       .  S
C1811      C1812   1.415       .  A
C1811      H1816   1.083       .  S
C1812      C1813   1.406       .  A
C1812      C3172   1.503       .  S
C1813      C1814   1.403       .  A
C1813      H1817   1.084       .  S
C1814      C1815   1.386       .  A
C1814      C1912   1.467       .  S
C1815      H1818   1.085       .  S
C1819      C1820   1.424       .  A
C1819      C1824   1.428       .  A
C1819      C3868   1.495       .  S
C1820      C1821   1.425       .  A
C1820      C3844   1.514       .  S
C1821      C1822   1.422       .  A
C1821      C1828   1.486       .  S
C1822      C1823   1.421       .  A
C1822      C1840   1.502       .  S
C1823      C1824   1.422       .  A
C1823      C1996   1.500       .  S
C1824      C1960   1.499       .  S
C1825      C1826   1.398       .  A
C1825      C1830   1.411       .  A
C1826      C1827   1.400       .  A
C1826      H1831   1.084       .  S
C1827      C1828   1.408       .  A
C1827      O1832   1.372       .  S
C1828      C1829   1.402       .  A
C1829      C1830   1.402       .  A
C1829      H1833   1.083       .  S
C1830      O1834   1.371       .  S
O1832      H1836   0.991       .  S
O1834      H1835   0.991       .  S
C1837      C1838   1.411       .  A
C1837      C1842   1.414       .  A
C1838      C1839   1.400       .  A
C1838      H1843   1.083       .  S
C1839      C1840   1.404       .  A
C1839      O1844   1.372       .  S
C1840      C1841   1.408       .  A
C1841      C1842   1.414       .  A
C1841      H1845   1.083       .  S
C1842      O1846   1.371       .  S
O1844      H1848   0.991       .  S
O1846      H1847   0.992       .  S
C1849      C1850   1.400   1_455  A
C1849      C1854   1.410       .  A
C1850      C1851   1.385   1_655  A
C1850      H1855   1.084       .  S
C1851      C1852   1.416       .  A
C1851      O1856   1.366   1_455  S
C1852      C1853   1.411       .  A
C1853      C1854   1.410       .  A
C1853      H1857   1.083       .  S
C1854      O1858   1.371       .  S
O1856      H1860   0.992       .  S
O1858      H1859   0.988       .  S
C1861      C1862   1.410       .  A
C1861      C1866   1.398       .  A
C1862      C1863   1.386       .  A
C1862      H1867   1.084       .  S
C1863      C1864   1.400       .  A
C1863      O1868   1.372       .  S
C1864      C1865   1.410       .  A
C1865      C1866   1.393       .  A
C1865      H1869   1.080       .  S
C1866      O1870   1.372       .  S
O1868      H1872   0.991       .  S
O1870      H1871   0.992       .  S
C1873      C1874   1.404       .  A
C1873      C1878   1.401       .  A
C1874      C1875   1.394       .  A
C1874      H1879   1.070       .  S
C1875      C1876   1.400       .  A
C1875      O1880   1.373       .  S
C1876      C1877   1.411       .  A
C1877      C1878   1.394       .  A
C1877      H1881   1.083       .  S
C1878      O1882   1.372       .  S
O1880      H1884   0.985       .  S
O1882      H1883   0.991       .  S
C1885      C1886   1.406       .  A
C1885      C1890   1.421       .  A
C1886      C1887   1.399       .  A
C1886      H1891   1.083       .  S
C1887      C1888   1.410       .  A
C1887      O1892   1.372       .  S
C1888      C1889   1.397       .  A
C1889      C1890   1.390       .  A
C1889      H1893   1.084       .  S
C1890      O1894   1.374       .  S
O1892      H1896   0.990       .  S
O1894      H1895   0.989       .  S
C1897      C1898   1.394       .  A
C1897      C1902   1.385       .  A
C1898      C1899   1.394       .  A
C1898      H1903   1.085       .  S
C1899      C1900   1.426       .  A
C1899      O1904   1.373       .  S
C1900      C1901   1.415       .  A
C1901      C1902   1.389       .  A
C1901      H1905   1.070       .  S
C1902      O1906   1.370       .  S
O1904      H1908   0.993       .  S
O1906      H1907   0.991       .  S
C1909      C1910   1.410       .  A
C1909      C1914   1.397       .  A
C1910      C1911   1.409       .  A
C1910      H1915   1.068       .  S
C1911      C1912   1.398       .  A
C1911      O1916   1.371       .  S
C1912      C1913   1.391       .  A
C1913      C1914   1.379       .  A
C1913      H1917   1.081       .  S
C1914      O1918   1.362       .  S
O1916      H1920   0.989       .  S
O1918      H1919   0.991       .  S
C1921      C1922   1.401       .  A
C1921      C1926   1.412       .  A
C1922      C1923   1.404       .  A
C1922      H1927   1.084       .  S
C1923      C1924   1.416       .  A
C1923      O1928   1.373       .  S
C1924      C1925   1.405       .  A
C1925      C1926   1.414       .  A
C1925      H1929   1.079       .  S
C1926      O1930   1.373   1_554  S
O1928      H1932   0.992       .  S
O1930      H1931   0.991       .  S
C1933      C1934   1.409   1_655  A
C1933      C1938   1.415       .  A
C1934      C1935   1.415   1_455  A
C1934      H1939   1.083       .  S
C1935      C1936   1.413       .  A
C1935      O1940   1.373   1_655  S
C1936      C1937   1.400       .  A
C1937      C1938   1.401       .  A
C1937      H1941   1.084   1_554  S
C1938      O1942   1.372       .  S
O1940      H1944   0.990       .  S
O1942      H1943   0.991       .  S
C1945      C1946   1.423   1_554  A
C1945      C1950   1.427       .  A
C1946      C1947   1.393   1_556  A
C1946      H1951   1.070       .  S
C1947      C1948   1.400       .  A
C1947      O1952   1.378   1_554  S
C1948      C1949   1.411       .  A
C1949      C1950   1.427       .  A
C1949      H1953   1.083       .  S
C1950      O1954   1.369       .  S
O1952      H1956   0.991       .  S
O1954      H1955   0.991       .  S
C1957      C1958   1.408       .  A
C1957      C1962   1.409       .  A
C1958      C1959   1.405       .  A
C1958      H1963   1.084       .  S
C1959      C1960   1.408       .  A
C1959      O1964   1.375       .  S
C1960      C1961   1.407       .  A
C1961      C1962   1.407       .  A
C1961      H1965   1.083       .  S
C1962      O1966   1.372       .  S
O1964      H1968   0.991       .  S
O1966      H1967   0.990       .  S
C1969      C1970   1.409       .  A
C1969      C1974   1.410       .  A
C1970      C1971   1.404       .  A
C1970      H1975   1.084       .  S
C1971      C1972   1.413       .  A
C1971      O1976   1.368       .  S
C1972      C1973   1.417       .  A
C1973      C1974   1.419       .  A
C1973      H1977   1.083       .  S
C1974      O1978   1.370       .  S
O1976      H1980   0.991       .  S
O1978      H1979   0.990       .  S
C1981      C1982   1.407       .  A
C1981      C1986   1.413       .  A
C1982      C1983   1.408       .  A
C1982      H1987   1.084       .  S
C1983      C1984   1.410       .  A
C1983      O1988   1.372       .  S
C1984      C1985   1.398       .  A
C1985      C1986   1.400       .  A
C1985      H1989   1.084   1_455  S
C1986      O1990   1.372       .  S
O1988      H1992   0.989       .  S
O1990      H1991   0.992       .  S
C1993      C1994   1.407       .  A
C1993      C1998   1.409       .  A
C1994      C1995   1.411       .  A
C1994      H1999   1.084       .  S
C1995      C1996   1.410       .  A
C1995      O2000   1.372       .  S
C1996      C1997   1.404       .  A
C1997      C1998   1.401       .  A
C1997      H2001   1.082       .  S
C1998      O2002   1.371       .  S
O2000      H2004   0.990       .  S
O2002      H2003   0.991       .  S
C2005      C2006   1.413   1_554  A
C2005      C2010   1.433       .  A
C2006      C2007   1.418       .  A
C2006      H2011   1.081       .  S
C2007      C2008   1.416       .  A
C2007      O2012   1.370       .  S
C2008      C2009   1.395       .  A
C2009      C2010   1.408   1_556  A
C2009      H2013   1.081       .  S
C2010      O2014   1.373       .  S
O2012      H2016   0.991       .  S
O2014      H2015   0.992       .  S
C2017      C2018   1.406       .  A
C2017      C2022   1.404       .  A
C2018      C2019   1.397       .  A
C2018      H2023   1.082       .  S
C2019      C2020   1.413       .  A
C2019      O2024   1.371       .  S
C2020      C2021   1.417       .  A
C2021      C2022   1.395       .  A
C2021      H2025   1.080       .  S
C2022      O2026   1.372       .  S
O2024      H2028   0.991       .  S
O2026      H2027   0.991       .  S
C2029      C2030   1.410       .  A
C2029      C2034   1.407       .  A
C2030      C2031   1.391   1_556  A
C2030      H2035   1.076       .  S
C2031      C2032   1.407       .  A
C2031      O2036   1.380       .  S
C2032      C2033   1.408   1_554  A
C2033      C2034   1.396       .  A
C2033      H2037   1.082       .  S
C2034      O2038   1.367       .  S
O2036      H2040   0.990       .  S
O2038      H2039   0.991       .  S
C2041      C2042   1.399       .  A
C2041      C2046   1.407       .  A
C2042      C2043   1.397       .  A
C2042      H2047   1.081       .  S
C2043      C2044   1.417       .  A
C2043      O2048   1.372       .  S
C2044      C2045   1.398       .  A
C2045      C2046   1.390       .  A
C2045      H2049   1.080       .  S
C2046      O2050   1.371       .  S
O2048      H2052   0.992       .  S
O2050      H2051   0.991       .  S
C2053      C2054   1.408       .  A
C2053      C2058   1.422       .  A
C2054      C2055   1.382       .  A
C2054      H2059   1.080       .  S
C2055      C2056   1.398       .  A
C2055      O2060   1.374       .  S
C2056      C2057   1.392       .  A
C2057      C2058   1.396       .  A
C2057      H2061   1.082       .  S
C2058      O2062   1.374       .  S
O2060      H2064   0.991       .  S
O2062      H2063   0.988       .  S
C2065      C2066   1.399   1_556  A
C2065      C2070   1.405       .  A
C2066      C2067   1.407       .  A
C2066      H2071   1.069       .  S
C2067      C2068   1.408       .  A
C2067      O2072   1.372       .  S
C2068      C2069   1.410   1_554  A
C2069      C2070   1.387       .  A
C2069      H2073   1.078       .  S
C2070      O2074   1.373       .  S
O2072      H2076   0.988       .  S
O2074      H2075   0.987       .  S
C2077      C2078   1.388       .  A
C2077      C2082   1.401       .  A
C2078      C2079   1.376       .  A
C2078      H2083   1.086       .  S
C2079      C2080   1.406       .  A
C2079      O2084   1.370       .  S
C2080      C2081   1.407       .  A
C2081      C2082   1.408       .  A
C2081      H2085   1.083       .  S
C2082      O2086   1.364       .  S
O2084      H2088   0.984       .  S
O2086      H2087   0.992       .  S
C2089      C2090   1.411       .  A
C2089      C2094   1.419       .  A
C2090      C2091   1.429       .  A
C2090      H2095   1.083       .  S
C2091      C2092   1.419       .  A
C2091      O2096   1.374       .  S
C2092      C2093   1.391       .  A
C2093      C2094   1.387       .  A
C2093      H2097   1.080       .  S
C2094      O2098   1.372       .  S
O2096      H2100   0.991       .  S
O2098      H2099   0.991       .  S
C2101      C2102   1.418       .  A
C2101      C2106   1.413       .  A
C2102      C2103   1.420       .  A
C2102      H2107   1.083       .  S
C2103      C2104   1.409       .  A
C2103      O2108   1.369       .  S
C2104      C2105   1.404       .  A
C2105      C2106   1.399       .  A
C2105      H2109   1.078       .  S
C2106      O2110   1.371       .  S
O2108      H2112   0.989       .  S
O2110      H2111   0.993       .  S
C2113      C2114   1.403       .  A
C2113      C2118   1.407       .  A
C2114      C2115   1.405       .  A
C2114      H2119   1.084       .  S
C2115      C2116   1.416       .  A
C2115      O2120   1.374       .  S
C2116      C2117   1.402       .  A
C2117      C2118   1.405       .  A
C2117      H2121   1.083       .  S
C2118      O2122   1.365       .  S
O2120      H2124   0.991       .  S
O2122      H2123   0.991       .  S
C2125      C2126   1.404       .  A
C2125      C2130   1.406       .  A
C2126      C2127   1.398       .  A
C2126      H2131   1.084       .  S
C2127      C2128   1.411   1_556  A
C2127      O2132   1.372       .  S
C2128      C2129   1.409       .  A
C2129      C2130   1.413   1_554  A
C2129      H2133   1.083       .  S
C2130      O2134   1.367       .  S
O2132      H2136   0.991       .  S
O2134      H2135   0.991       .  S
C2137      C2138   1.408       .  A
C2137      C2142   1.418       .  A
C2138      C2139   1.421       .  A
C2138      H2143   1.083       .  S
C2139      C2140   1.424       .  A
C2139      O2144   1.370       .  S
C2140      C2141   1.403       .  A
C2141      C2142   1.402       .  A
C2141      H2145   1.072       .  S
C2142      O2146   1.368       .  S
O2144      H2148   0.991       .  S
O2146      H2147   0.991       .  S
C2149      C2150   1.404       .  A
C2149      C2154   1.420       .  A
C2150      C2151   1.417   1_556  A
C2150      H2155   1.083       .  S
C2151      C2152   1.421       .  A
C2151      O2156   1.370       .  S
C2152      C2153   1.403   1_554  A
C2153      C2154   1.406       .  A
C2153      H2157   1.079       .  S
C2154      O2158   1.375       .  S
O2156      H2160   0.991       .  S
O2158      H2159   0.992       .  S
C2161      C2162   1.405       .  A
C2161      C2166   1.397       .  A
C2162      C2163   1.396       .  A
C2162      H2167   1.082       .  S
C2163      C2164   1.418       .  A
C2163      O2168   1.368       .  S
C2164      C2165   1.415       .  A
C2165      C2166   1.401       .  A
C2165      H2169   1.077       .  S
C2166      O2170   1.376       .  S
O2168      H2172   0.991       .  S
O2170      H2171   0.986       .  S
C2173      C2174   1.403       .  A
C2173      C2178   1.397       .  A
C2174      C2175   1.406       .  A
C2174      H2179   1.078       .  S
C2175      C2176   1.413       .  A
C2175      O2180   1.369       .  S
C2176      C2177   1.415       .  A
C2177      C2178   1.388       .  A
C2177      H2181   1.068       .  S
C2178      O2182   1.372       .  S
O2180      H2184   0.991       .  S
O2182      H2183   0.991       .  S
C2185      C2186   1.410       .  A
C2185      C2190   1.407       .  A
C2186      C2187   1.397       .  A
C2186      H2191   1.083       .  S
C2187      C2188   1.401       .  A
C2187      O2192   1.372       .  S
C2188      C2189   1.406       .  A
C2189      C2190   1.401       .  A
C2189      H2193   1.082       .  S
C2190      O2194   1.373       .  S
O2192      H2196   0.992       .  S
O2194      H2195   0.991       .  S
C2197      C2198   1.402       .  A
C2197      C2202   1.398       .  A
C2198      C2199   1.393       .  A
C2198      H2203   1.082       .  S
C2199      C2200   1.416       .  A
C2199      O2204   1.370       .  S
C2200      C2201   1.421       .  A
C2201      C2202   1.396       .  A
C2201      H2205   1.079       .  S
C2202      O2206   1.372       .  S
O2204      H2208   0.991       .  S
O2206      H2207   0.991       .  S
C2209      C2210   1.401       .  A
C2209      C2214   1.398       .  A
C2210      C2211   1.405       .  A
C2210      H2215   1.084       .  S
C2211      C2212   1.409       .  A
C2211      O2216   1.372       .  S
C2212      C2213   1.397       .  A
C2213      C2214   1.372       .  A
C2213      H2217   1.080       .  S
C2214      O2218   1.370       .  S
O2216      H2220   0.992       .  S
O2218      H2219   0.991       .  S
C2221      C2222   1.396       .  A
C2221      C2226   1.398       .  A
C2222      C2223   1.385       .  A
C2222      H2227   1.084       .  S
C2223      C2224   1.410       .  A
C2223      O2228   1.374       .  S
C2224      C2225   1.405       .  A
C2225      C2226   1.393       .  A
C2225      H2229   1.075       .  S
C2226      O2230   1.372       .  S
O2228      H2232   0.989       .  S
O2230      H2231   0.992       .  S
C2233      C2234   1.416       .  A
C2233      C2238   1.407       .  A
C2234      C2235   1.425       .  A
C2234      H2239   1.083       .  S
C2235      C2236   1.419       .  A
C2235      O2240   1.369       .  S
C2236      C2237   1.412       .  A
C2237      C2238   1.391       .  A
C2237      H2241   1.082       .  S
C2238      O2242   1.377       .  S
O2240      H2244   0.991       .  S
O2242      H2243   0.992       .  S
C2245      C2246   1.423       .  A
C2245      C2250   1.405       .  A
C2246      C2247   1.429       .  A
C2246      H2251   1.083   1_565  S
C2247      C2248   1.414       .  A
C2247      O2252   1.370       .  S
C2248      C2249   1.414       .  A
C2249      C2250   1.394       .  A
C2249      H2253   1.078       .  S
C2250      O2254   1.363       .  S
O2252      H2256   0.990       .  S
O2254      H2255   0.993       .  S
C2257      C2258   1.407       .  A
C2257      C2262   1.407       .  A
C2258      C2259   1.407       .  A
C2258      H2263   1.077       .  S
C2259      C2260   1.407       .  A
C2259      O2264   1.376       .  S
C2260      C2261   1.409       .  A
C2261      C2262   1.406       .  A
C2261      H2265   1.083       .  S
C2262      O2266   1.370       .  S
O2264      H2268   0.991       .  S
O2266      H2267   0.991       .  S
C2269      C2270   1.409       .  A
C2269      C2274   1.406       .  A
C2270      C2271   1.395       .  A
C2270      H2275   1.085       .  S
C2271      C2272   1.410       .  A
C2271      O2276   1.367       .  S
C2272      C2273   1.413       .  A
C2273      C2274   1.413       .  A
C2273      H2277   1.081       .  S
C2274      O2278   1.370       .  S
O2276      H2280   0.992       .  S
O2278      H2279   0.991       .  S
C2281      C2282   1.411       .  A
C2281      C2286   1.419       .  A
C2282      C2283   1.422       .  A
C2282      H2287   1.083       .  S
C2283      C2284   1.415       .  A
C2283      O2288   1.370       .  S
C2284      C2285   1.404       .  A
C2285      C2286   1.401       .  A
C2285      H2289   1.083   1_545  S
C2286      O2290   1.372   1_545  S
O2288      H2292   0.991       .  S
O2290      H2291   0.990       .  S
C2293      C2294   1.419       .  A
C2293      C2298   1.415       .  A
C2294      C2295   1.388       .  A
C2294      H2299   1.075       .  S
C2295      C2296   1.400       .  A
C2295      O2300   1.376       .  S
C2296      C2297   1.418       .  A
C2297      C2298   1.429       .  A
C2297      H2301   1.083       .  S
C2298      O2302   1.368       .  S
O2300      H2304   0.991       .  S
O2302      H2303   0.990       .  S
C2305      C2306   1.417       .  A
C2305      C2310   1.423       .  A
C2306      C2307   1.398       .  A
C2306      H2311   1.081       .  S
C2307      C2308   1.397       .  A
C2307      O2312   1.370       .  S
C2308      C2309   1.402       .  A
C2309      C2310   1.403       .  A
C2309      H2313   1.084       .  S
C2310      O2314   1.371       .  S
O2312      H2316   0.991       .  S
O2314      H2315   0.991   1_565  S
C2317      C2318   1.408       .  A
C2317      C2322   1.404       .  A
C2318      C2319   1.401       .  A
C2318      H2323   1.084       .  S
C2319      C2320   1.405       .  A
C2319      O2324   1.371       .  S
C2320      C2321   1.411       .  A
C2321      C2322   1.395       .  A
C2321      H2325   1.083       .  S
C2322      O2326   1.372       .  S
O2324      H2328   0.991       .  S
O2326      H2327   0.991       .  S
C2329      C2330   1.394       .  A
C2329      C2334   1.396       .  A
C2330      C2331   1.396       .  A
C2330      H2335   1.084       .  S
C2331      C2332   1.406       .  A
C2331      O2336   1.368       .  S
C2332      C2333   1.399       .  A
C2333      C2334   1.369       .  A
C2333      H2337   1.085       .  S
C2334      O2338   1.367       .  S
O2336      H2340   0.992       .  S
O2338      H2339   0.992       .  S
C2341      C2342   1.397       .  A
C2341      C2346   1.408   1_545  A
C2342      C2343   1.394       .  A
C2342      H2347   1.085       .  S
C2343      C2344   1.416   1_545  A
C2343      O2348   1.370       .  S
C2344      C2345   1.406       .  A
C2345      C2346   1.403       .  A
C2345      H2349   1.083       .  S
C2346      O2350   1.371       .  S
O2348      H2352   0.992       .  S
O2350      H2351   0.991   1_565  S
C2353      C2354   1.408       .  A
C2353      C2358   1.406       .  A
C2354      C2355   1.406       .  A
C2354      H2359   1.084       .  S
C2355      C2356   1.405       .  A
C2355      O2360   1.371       .  S
C2356      C2357   1.408       .  A
C2357      C2358   1.397       .  A
C2357      H2361   1.083       .  S
C2358      O2362   1.376       .  S
O2360      H2364   0.991       .  S
O2362      H2363   0.991       .  S
C2365      C2366   1.405       .  A
C2365      C2370   1.395       .  A
C2366      C2367   1.401       .  A
C2366      H2371   1.084       .  S
C2367      C2368   1.404       .  A
C2367      O2372   1.368       .  S
C2368      C2369   1.398       .  A
C2369      C2370   1.377       .  A
C2369      H2373   1.077       .  S
C2370      O2374   1.375       .  S
O2372      H2376   0.991       .  S
O2374      H2375   0.992       .  S
C2377      C2378   1.388       .  A
C2377      C2382   1.409       .  A
C2378      C2379   1.385       .  A
C2378      H2383   1.086       .  S
C2379      C2380   1.436       .  A
C2379      O2384   1.369       .  S
C2380      C2381   1.420       .  A
C2381      C2382   1.419       .  A
C2381      H2385   1.080       .  S
C2382      O2386   1.370       .  S
O2384      H2388   0.992       .  S
O2386      H2387   0.991       .  S
C2389      C2390   1.412       .  A
C2389      C2394   1.410       .  A
C2390      C2391   1.415       .  A
C2390      H2395   1.083       .  S
C2391      C2392   1.412       .  A
C2391      O2396   1.370       .  S
C2392      C2393   1.411       .  A
C2393      C2394   1.403       .  A
C2393      H2397   1.082       .  S
C2394      O2398   1.369       .  S
O2396      H2400   0.991       .  S
O2398      H2399   0.985       .  S
C2401      C2402   1.422       .  A
C2401      C2406   1.423       .  A
C2402      C2403   1.384       .  A
C2402      H2407   1.066       .  S
C2403      C2404   1.394       .  A
C2403      O2408   1.377       .  S
C2404      C2405   1.411       .  A
C2405      C2406   1.424       .  A
C2405      H2409   1.083       .  S
C2406      O2410   1.369       .  S
O2408      H2412   0.991       .  S
O2410      H2411   0.991       .  S
C2413      C2414   1.410       .  A
C2413      C2418   1.421       .  A
C2414      C2415   1.422       .  A
C2414      H2419   1.083       .  S
C2415      C2416   1.420       .  A
C2415      O2420   1.370       .  S
C2416      C2417   1.406       .  A
C2417      C2418   1.409       .  A
C2417      H2421   1.072       .  S
C2418      O2422   1.375       .  S
O2420      H2424   0.991       .  S
O2422      H2423   0.992       .  S
C2425      C2426   1.392       .  A
C2425      C2430   1.411       .  A
C2426      C2427   1.378       .  A
C2426      H2431   1.086       .  S
C2427      C2428   1.413       .  A
C2427      O2432   1.368       .  S
C2428      C2429   1.403       .  A
C2429      C2430   1.410       .  A
C2429      H2433   1.083       .  S
C2430      O2434   1.371       .  S
O2432      H2436   0.986       .  S
O2434      H2435   0.991       .  S
C2437      C2438   1.410       .  A
C2437      C2442   1.402       .  A
C2438      C2439   1.415       .  A
C2438      H2443   1.082       .  S
C2439      C2440   1.404       .  A
C2439      O2444   1.368       .  S
C2440      C2441   1.390       .  A
C2441      C2442   1.371       .  A
C2441      H2445   1.076       .  S
C2442      O2446   1.374       .  S
O2444      H2448   0.991       .  S
O2446      H2447   0.991       .  S
C2449      C2450   1.402       .  A
C2449      C2454   1.401       .  A
C2450      C2451   1.399       .  A
C2450      H2455   1.077       .  S
C2451      C2452   1.409       .  A
C2451      O2456   1.374       .  S
C2452      C2453   1.408       .  A
C2453      C2454   1.374       .  A
C2453      H2457   1.081       .  S
C2454      O2458   1.371       .  S
O2456      H2460   0.992       .  S
O2458      H2459   0.992       .  S
C2461      C2462   1.402       .  A
C2461      C2466   1.401       .  A
C2462      C2463   1.387       .  A
C2462      H2467   1.085       .  S
C2463      C2464   1.411       .  A
C2463      O2468   1.372       .  S
C2464      C2465   1.415       .  A
C2465      C2466   1.393       .  A
C2465      H2469   1.080       .  S
C2466      O2470   1.371       .  S
O2468      H2472   0.990       .  S
O2470      H2471   0.991       .  S
C2473      C2474   1.407       .  A
C2473      C2478   1.404       .  A
C2474      C2475   1.409   1_655  A
C2474      H2479   1.084       .  S
C2475      C2476   1.414       .  A
C2475      O2480   1.375       .  S
C2476      C2477   1.409       .  A
C2477      C2478   1.389   1_455  A
C2477      H2481   1.076       .  S
C2478      O2482   1.375       .  S
O2480      H2484   0.991       .  S
O2482      H2483   0.991       .  S
C2485      C2486   1.406       .  A
C2485      C2490   1.416       .  A
C2486      C2487   1.379       .  A
C2486      H2491   1.081       .  S
C2487      C2488   1.394       .  A
C2487      O2492   1.365       .  S
C2488      C2489   1.404       .  A
C2489      C2490   1.410       .  A
C2489      H2493   1.081       .  S
C2490      O2494   1.371       .  S
O2492      H2496   0.992       .  S
O2494      H2495   0.991       .  S
C2497      C2498   1.395   1_565  A
C2497      C2502   1.413   1_565  A
C2498      C2499   1.395       .  A
C2498      H2503   1.085       .  S
C2499      C2500   1.424       .  A
C2499      O2504   1.375       .  S
C2500      C2501   1.414       .  A
C2501      C2502   1.418       .  A
C2501      H2505   1.082       .  S
C2502      O2506   1.370   1_545  S
O2504      H2508   0.993       .  S
O2506      H2507   0.991       .  S
C2509      C2510   1.406       .  A
C2509      C2514   1.410       .  A
C2510      C2511   1.421   1_545  A
C2510      H2515   1.083       .  S
C2511      C2512   1.427       .  A
C2511      O2516   1.370       .  S
C2512      C2513   1.404   1_565  A
C2513      C2514   1.393       .  A
C2513      H2517   1.064       .  S
C2514      O2518   1.370       .  S
O2516      H2520   0.991       .  S
O2518      H2519   0.991       .  S
C2521      C2522   1.407       .  A
C2521      C2526   1.410       .  A
C2522      C2523   1.412       .  A
C2522      H2527   1.083       .  S
C2523      C2524   1.412       .  A
C2523      O2528   1.372       .  S
C2524      C2525   1.411       .  A
C2525      C2526   1.407       .  A
C2525      H2529   1.083       .  S
C2526      O2530   1.371   1_565  S
O2528      H2532   0.991       .  S
O2530      H2531   0.990       .  S
C2533      C2534   1.410       .  A
C2533      C2538   1.408       .  A
C2534      C2535   1.403       .  A
C2534      H2539   1.083   1_455  S
C2535      C2536   1.403       .  A
C2535      O2540   1.369       .  S
C2536      C2537   1.408       .  A
C2537      C2538   1.402       .  A
C2537      H2541   1.084       .  S
C2538      O2542   1.372       .  S
O2540      H2544   0.991       .  S
O2542      H2543   0.991       .  S
C2545      C2546   1.404       .  A
C2545      C2550   1.406       .  A
C2546      C2547   1.404       .  A
C2546      H2551   1.083       .  S
C2547      C2548   1.412       .  A
C2547      O2552   1.371       .  S
C2548      C2549   1.409       .  A
C2549      C2550   1.402       .  A
C2549      H2553   1.084       .  S
C2550      O2554   1.371       .  S
O2552      H2556   0.991       .  S
O2554      H2555   0.991       .  S
C2557      C2558   1.398       .  A
C2557      C2562   1.411       .  A
C2558      C2559   1.408       .  A
C2558      H2563   1.083       .  S
C2559      C2560   1.427       .  A
C2559      O2564   1.374       .  S
C2560      C2561   1.408       .  A
C2561      C2562   1.411       .  A
C2561      H2565   1.083       .  S
C2562      O2566   1.370       .  S
O2564      H2568   0.992       .  S
O2566      H2567   0.991       .  S
C2569      C2570   1.411       .  A
C2569      C2574   1.418       .  A
C2570      C2571   1.419       .  A
C2570      H2575   1.083       .  S
C2571      C2572   1.415       .  A
C2571      O2576   1.370       .  S
C2572      C2573   1.401       .  A
C2573      C2574   1.404       .  A
C2573      H2577   1.084       .  S
C2574      O2578   1.373       .  S
O2576      H2580   0.991       .  S
O2578      H2579   0.989       .  S
C2581      C2582   1.411       .  A
C2581      C2586   1.411       .  A
C2582      C2583   1.410       .  A
C2582      H2587   1.083       .  S
C2583      C2584   1.409       .  A
C2583      O2588   1.371       .  S
C2584      C2585   1.401       .  A
C2585      C2586   1.402       .  A
C2585      H2589   1.084       .  S
C2586      O2590   1.371       .  S
O2588      H2592   0.991       .  S
O2590      H2591   0.992       .  S
C2593      C2594   1.392       .  A
C2593      C2598   1.407       .  A
C2594      C2595   1.391       .  A
C2594      H2599   1.085       .  S
C2595      C2596   1.414       .  A
C2595      O2600   1.378       .  S
C2596      C2597   1.401       .  A
C2597      C2598   1.398       .  A
C2597      H2601   1.083       .  S
C2598      O2602   1.372       .  S
O2600      H2604   0.992       .  S
O2602      H2603   0.991       .  S
C2605      C2606   1.400       .  A
C2605      C2610   1.406       .  A
C2606      C2607   1.393       .  A
C2606      H2611   1.085       .  S
C2607      C2608   1.417       .  A
C2607      O2612   1.373       .  S
C2608      C2609   1.409       .  A
C2609      C2610   1.405       .  A
C2609      H2613   1.083       .  S
C2610      O2614   1.371       .  S
O2612      H2616   0.986       .  S
O2614      H2615   0.991       .  S
C2617      C2618   1.397       .  A
C2617      C2622   1.411       .  A
C2618      C2619   1.370       .  A
C2618      H2623   1.073       .  S
C2619      C2620   1.401       .  A
C2619      O2624   1.373       .  S
C2620      C2621   1.411       .  A
C2621      C2622   1.418       .  A
C2621      H2625   1.083       .  S
C2622      O2626   1.370       .  S
O2624      H2628   0.991       .  S
O2626      H2627   0.991       .  S
C2629      C2630   1.389       .  A
C2629      C2634   1.404       .  A
C2630      C2631   1.387       .  A
C2630      H2635   1.084       .  S
C2631      C2632   1.425       .  A
C2631      O2636   1.370       .  S
C2632      C2633   1.403       .  A
C2633      C2634   1.394       .  A
C2633      H2637   1.084       .  S
C2634      O2638   1.366       .  S
O2636      H2640   0.992       .  S
O2638      H2639   0.989       .  S
C2641      C2642   1.386       .  A
C2641      C2646   1.411       .  A
C2642      C2643   1.393       .  A
C2642      H2647   1.084       .  S
C2643      C2644   1.429       .  A
C2643      O2648   1.373       .  S
C2644      C2645   1.399       .  A
C2645      C2646   1.394       .  A
C2645      H2649   1.084       .  S
C2646      O2650   1.372       .  S
O2648      H2652   0.992       .  S
O2650      H2651   0.991       .  S
C2653      C2654   1.398       .  A
C2653      C2658   1.404       .  A
C2654      C2655   1.392       .  A
C2654      H2659   1.084       .  S
C2655      C2656   1.414       .  A
C2655      O2660   1.373       .  S
C2656      C2657   1.406       .  A
C2657      C2658   1.396       .  A
C2657      H2661   1.084       .  S
C2658      O2662   1.368       .  S
O2660      H2664   0.992       .  S
O2662      H2663   0.991       .  S
C2665      C2666   1.407       .  A
C2665      C2670   1.406       .  A
C2666      C2667   1.409       .  A
C2666      H2671   1.082       .  S
C2667      C2668   1.413       .  A
C2667      O2672   1.371       .  S
C2668      C2669   1.408       .  A
C2669      C2670   1.409       .  A
C2669      H2673   1.084       .  S
C2670      O2674   1.372       .  S
O2672      H2676   0.992       .  S
O2674      H2675   0.992       .  S
C2677      C2678   1.417       .  A
C2677      C2682   1.434       .  A
C2678      C2679   1.427       .  A
C2678      H2683   1.081       .  S
C2679      C2680   1.416       .  A
C2679      O2684   1.370       .  S
C2680      C2681   1.394       .  A
C2681      C2682   1.394       .  A
C2681      H2685   1.084       .  S
C2682      O2686   1.374       .  S
O2684      H2688   0.991       .  S
O2686      H2687   0.990       .  S
C2689      C2690   1.395       .  A
C2689      C2694   1.398       .  A
C2690      C2691   1.395       .  A
C2690      H2695   1.084       .  S
C2691      C2692   1.419       .  A
C2691      O2696   1.369       .  S
C2692      C2693   1.413       .  A
C2693      C2694   1.385       .  A
C2693      H2697   1.080       .  S
C2694      O2698   1.374       .  S
O2696      H2700   0.991       .  S
O2698      H2699   0.991       .  S
C2701      C2702   1.405       .  A
C2701      C2706   1.412       .  A
C2702      C2703   1.393       .  A
C2702      H2707   1.084       .  S
C2703      C2704   1.416       .  A
C2703      O2708   1.370       .  S
C2704      C2705   1.413       .  A
C2705      C2706   1.399       .  A
C2705      H2709   1.082       .  S
C2706      O2710   1.375   1_545  S
O2708      H2712   0.991       .  S
O2710      H2711   0.990       .  S
C2713      C2714   1.396       .  A
C2713      C2718   1.406       .  A
C2714      C2715   1.387       .  A
C2714      H2719   1.084       .  S
C2715      C2716   1.422       .  A
C2715      O2720   1.372       .  S
C2716      C2717   1.410       .  A
C2717      C2718   1.403       .  A
C2717      H2721   1.083       .  S
C2718      O2722   1.373       .  S
O2720      H2724   0.992       .  S
O2722      H2723   0.989       .  S
C2725      C2726   1.401       .  A
C2725      C2730   1.406       .  A
C2726      C2727   1.383       .  A
C2726      H2731   1.079       .  S
C2727      C2728   1.404       .  A
C2727      O2732   1.375       .  S
C2728      C2729   1.413       .  A
C2729      C2730   1.405       .  A
C2729      H2733   1.082       .  S
C2730      O2734   1.372       .  S
O2732      H2736   0.991       .  S
O2734      H2735   0.992       .  S
C2737      C2738   1.399       .  A
C2737      C2742   1.401       .  A
C2738      C2739   1.390       .  A
C2738      H2743   1.084       .  S
C2739      C2740   1.408       .  A
C2739      O2744   1.371       .  S
C2740      C2741   1.401       .  A
C2741      C2742   1.385       .  A
C2741      H2745   1.076       .  S
C2742      O2746   1.372       .  S
O2744      H2748   0.991       .  S
O2746      H2747   0.991       .  S
C2749      C2750   1.405       .  A
C2749      C2754   1.388       .  A
C2750      C2751   1.406       .  A
C2750      H2755   1.084       .  S
C2751      C2752   1.416   1_545  A
C2751      O2756   1.371       .  S
C2752      C2753   1.411   1_565  A
C2753      C2754   1.380       .  A
C2753      H2757   1.076       .  S
C2754      O2758   1.361       .  S
O2756      H2760   0.991   1_545  S
O2758      H2759   0.992       .  S
C2761      C2762   1.402       .  A
C2761      C2766   1.419       .  A
C2762      C2763   1.414       .  A
C2762      H2767   1.083       .  S
C2763      C2764   1.419       .  A
C2763      O2768   1.369       .  S
C2764      C2765   1.402       .  A
C2765      C2766   1.403       .  A
C2765      H2769   1.079       .  S
C2766      O2770   1.374       .  S
O2768      H2772   0.991       .  S
O2770      H2771   0.991       .  S
C2773      C2774   1.407       .  A
C2773      C2778   1.416       .  A
C2774      C2775   1.414       .  A
C2774      H2779   1.084       .  S
C2775      C2776   1.417       .  A
C2775      O2780   1.375       .  S
C2776      C2777   1.403       .  A
C2777      C2778   1.411       .  A
C2777      H2781   1.083       .  S
C2778      O2782   1.370       .  S
O2780      H2784   0.991       .  S
O2782      H2783   0.991       .  S
C2785      C2786   1.411       .  A
C2785      C2790   1.405       .  A
C2786      C2787   1.409       .  A
C2786      H2791   1.074       .  S
C2787      C2788   1.415       .  A
C2787      O2792   1.368       .  S
C2788      C2789   1.424       .  A
C2789      C2790   1.419       .  A
C2789      H2793   1.083       .  S
C2790      O2794   1.371       .  S
O2792      H2796   0.992       .  S
O2794      H2795   0.990       .  S
C2797      C2798   1.402       .  A
C2797      C2802   1.412       .  A
C2798      C2799   1.409       .  A
C2798      H2803   1.084       .  S
C2799      C2800   1.428       .  A
C2799      O2804   1.372       .  S
C2800      C2801   1.420       .  A
C2801      C2802   1.421       .  A
C2801      H2805   1.081       .  S
C2802      O2806   1.370       .  S
O2804      H2808   0.991       .  S
O2806      H2807   0.991       .  S
C2809      C2810   1.409       .  A
C2809      C2814   1.414       .  A
C2810      C2811   1.413       .  A
C2810      H2815   1.082       .  S
C2811      C2812   1.411       .  A
C2811      O2816   1.373       .  S
C2812      C2813   1.401       .  A
C2813      C2814   1.405       .  A
C2813      H2817   1.084       .  S
C2814      O2818   1.371       .  S
O2816      H2820   0.991       .  S
O2818      H2819   0.992       .  S
C2821      C2822   1.411       .  A
C2821      C2826   1.411       .  A
C2822      C2823   1.403       .  A
C2822      H2827   1.080       .  S
C2823      C2824   1.406       .  A
C2823      O2828   1.372       .  S
C2824      C2825   1.412       .  A
C2825      C2826   1.418       .  A
C2825      H2829   1.083       .  S
C2826      O2830   1.370       .  S
O2828      H2832   0.991       .  S
O2830      H2831   0.991       .  S
C2833      C2834   1.390       .  A
C2833      C2838   1.410       .  A
C2834      C2835   1.395       .  A
C2834      H2839   1.085       .  S
C2835      C2836   1.418       .  A
C2835      O2840   1.374       .  S
C2836      C2837   1.398       .  A
C2837      C2838   1.399       .  A
C2837      H2841   1.084       .  S
C2838      O2842   1.374       .  S
O2840      H2844   0.991       .  S
O2842      H2843   0.990       .  S
C2845      C2846   1.405       .  A
C2845      C2850   1.408       .  A
C2846      C2847   1.403       .  A
C2846      H2851   1.084       .  S
C2847      C2848   1.410       .  A
C2847      O2852   1.371       .  S
C2848      C2849   1.400       .  A
C2849      C2850   1.390       .  A
C2849      H2853   1.084   1_554  S
C2850      O2854   1.373   1_554  S
O2852      H2856   0.991       .  S
O2854      H2855   0.991       .  S
C2857      C2858   1.401       .  A
C2857      C2862   1.394       .  A
C2858      C2859   1.400       .  A
C2858      H2863   1.084       .  S
C2859      C2860   1.406       .  A
C2859      O2864   1.368       .  S
C2860      C2861   1.406       .  A
C2861      C2862   1.374       .  A
C2861      H2865   1.080       .  S
C2862      O2866   1.374       .  S
O2864      H2868   0.991       .  S
O2866      H2867   0.992       .  S
C2869      C2870   1.397       .  A
C2869      C2874   1.394       .  A
C2870      C2871   1.402       .  A
C2870      H2875   1.077   1_554  S
C2871      C2872   1.411       .  A
C2871      O2876   1.371   1_554  S
C2872      C2873   1.404       .  A
C2873      C2874   1.406       .  A
C2873      H2877   1.080       .  S
C2874      O2878   1.368       .  S
O2876      H2880   0.991       .  S
O2878      H2879   0.991       .  S
C2881      C2882   1.395       .  A
C2881      C2886   1.409       .  A
C2882      C2883   1.387       .  A
C2882      H2887   1.085       .  S
C2883      C2884   1.419       .  A
C2883      O2888   1.371       .  S
C2884      C2885   1.406       .  A
C2885      C2886   1.400       .  A
C2885      H2889   1.084       .  S
C2886      O2890   1.371       .  S
O2888      H2892   0.992       .  S
O2890      H2891   0.991       .  S
C2893      C2894   1.404       .  A
C2893      C2898   1.404       .  A
C2894      C2895   1.380       .  A
C2894      H2899   1.078       .  S
C2895      C2896   1.401       .  A
C2895      O2900   1.374       .  S
C2896      C2897   1.399       .  A
C2897      C2898   1.398       .  A
C2897      H2901   1.084       .  S
C2898      O2902   1.364       .  S
O2900      H2904   0.988       .  S
O2902      H2903   0.991       .  S
C2905      C2906   1.412       .  A
C2905      C2910   1.406       .  A
C2906      C2907   1.414       .  A
C2906      H2911   1.083       .  S
C2907      C2908   1.409       .  A
C2907      O2912   1.371       .  S
C2908      C2909   1.414       .  A
C2909      C2910   1.404       .  A
C2909      H2913   1.079       .  S
C2910      O2914   1.373       .  S
O2912      H2916   0.991       .  S
O2914      H2915   0.991       .  S
C2917      C2918   1.401       .  A
C2917      C2922   1.411       .  A
C2918      C2919   1.397       .  A
C2918      H2923   1.083       .  S
C2919      C2920   1.411       .  A
C2919      O2924   1.373       .  S
C2920      C2921   1.407       .  A
C2921      C2922   1.413       .  A
C2921      H2925   1.083       .  S
C2922      O2926   1.371       .  S
O2924      H2928   0.991       .  S
O2926      H2927   0.991       .  S
C2929      C2930   1.417       .  A
C2929      C2934   1.410   1_554  A
C2930      C2931   1.417   1_554  A
C2930      H2935   1.083       .  S
C2931      C2932   1.409       .  A
C2931      O2936   1.370       .  S
C2932      C2933   1.412       .  A
C2933      C2934   1.402       .  A
C2933      H2937   1.081       .  S
C2934      O2938   1.372       .  S
O2936      H2940   0.991       .  S
O2938      H2939   0.991       .  S
C2941      C2942   1.409   1_554  A
C2941      C2946   1.413   1_554  A
C2942      C2943   1.400       .  A
C2942      H2947   1.083       .  S
C2943      C2944   1.413       .  A
C2943      O2948   1.373       .  S
C2944      C2945   1.409       .  A
C2945      C2946   1.411       .  A
C2945      H2949   1.081       .  S
C2946      O2950   1.370   1_556  S
O2948      H2952   0.991       .  S
O2950      H2951   0.991       .  S
C2953      C2954   1.412   1_565  A
C2953      C2958   1.427       .  A
C2954      C2955   1.404       .  A
C2954      H2959   1.066       .  S
C2955      C2956   1.414       .  A
C2955      O2960   1.372       .  S
C2956      C2957   1.406       .  A
C2957      C2958   1.419   1_545  A
C2957      H2961   1.083       .  S
C2958      O2962   1.370       .  S
O2960      H2964   0.991       .  S
O2962      H2963   0.991       .  S
C2965      C2966   1.414       .  A
C2965      C2970   1.407   1_565  A
C2966      C2967   1.422   1_565  A
C2966      H2971   1.083       .  S
C2967      C2968   1.414       .  A
C2967      O2972   1.370       .  S
C2968      C2969   1.414       .  A
C2969      C2970   1.400       .  A
C2969      H2973   1.083       .  S
C2970      O2974   1.373       .  S
O2972      H2976   0.991       .  S
O2974      H2975   0.990       .  S
C2977      C2978   1.417       .  A
C2977      C2982   1.405       .  A
C2978      C2979   1.420       .  A
C2978      H2983   1.083       .  S
C2979      C2980   1.410       .  A
C2979      O2984   1.368       .  S
C2980      C2981   1.415       .  A
C2981      C2982   1.400       .  A
C2981      H2985   1.080       .  S
C2982      O2986   1.376       .  S
O2984      H2988   0.991       .  S
O2986      H2987   0.991       .  S
C2989      C2990   1.407       .  A
C2989      C2994   1.410       .  A
C2990      C2991   1.409       .  A
C2990      H2995   1.083   1_565  S
C2991      C2992   1.410       .  A
C2991      O2996   1.372   1_565  S
C2992      C2993   1.401       .  A
C2993      C2994   1.399       .  A
C2993      H2997   1.083       .  S
C2994      O2998   1.364       .  S
O2996      H3000   0.991       .  S
O2998      H2999   0.992       .  S
C3001      C3002   1.409       .  A
C3001      C3006   1.403       .  A
C3002      C3003   1.416       .  A
C3002      H3007   1.083       .  S
C3003      C3004   1.418       .  A
C3003      O3008   1.369       .  S
C3004      C3005   1.411       .  A
C3005      C3006   1.380       .  A
C3005      H3009   1.078       .  S
C3006      O3010   1.374       .  S
O3008      H3012   0.991       .  S
O3010      H3011   0.991       .  S
C3013      C3014   1.420       .  A
C3013      C3018   1.415       .  A
C3014      C3015   1.417       .  A
C3014      H3019   1.082       .  S
C3015      C3016   1.407       .  A
C3015      O3020   1.370       .  S
C3016      C3017   1.410       .  A
C3017      C3018   1.399       .  A
C3017      H3021   1.083       .  S
C3018      O3022   1.369       .  S
O3020      H3024   0.991       .  S
O3022      H3023   0.991       .  S
C3025      C3026   1.404       .  A
C3025      C3030   1.416       .  A
C3026      C3027   1.400       .  A
C3026      H3031   1.083       .  S
C3027      C3028   1.417       .  A
C3027      O3032   1.374       .  S
C3028      C3029   1.414       .  A
C3029      C3030   1.426       .  A
C3029      H3033   1.083       .  S
C3030      O3034   1.371       .  S
O3032      H3036   0.992       .  S
O3034      H3035   0.991       .  S
C3037      C3038   1.413       .  A
C3037      C3042   1.412       .  A
C3038      C3039   1.414       .  A
C3038      H3043   1.082       .  S
C3039      C3040   1.413       .  A
C3039      O3044   1.376       .  S
C3040      C3041   1.413       .  A
C3041      C3042   1.407       .  A
C3041      H3045   1.080       .  S
C3042      O3046   1.370       .  S
O3044      H3048   0.988       .  S
O3046      H3047   0.992       .  S
C3049      C3050   1.411       .  A
C3049      C3054   1.413       .  A
C3050      C3051   1.422       .  A
C3050      H3055   1.083       .  S
C3051      C3052   1.419       .  A
C3051      O3056   1.369   1_565  S
C3052      C3053   1.400       .  A
C3053      C3054   1.396       .  A
C3053      H3057   1.081       .  S
C3054      O3058   1.370       .  S
O3056      H3060   0.991       .  S
O3058      H3059   0.991       .  S
C3061      C3062   1.398       .  A
C3061      C3066   1.416       .  A
C3062      C3063   1.398       .  A
C3062      H3067   1.083       .  S
C3063      C3064   1.424       .  A
C3063      O3068   1.377       .  S
C3064      C3065   1.411       .  A
C3065      C3066   1.419       .  A
C3065      H3069   1.082       .  S
C3066      O3070   1.370       .  S
O3068      H3072   0.992       .  S
O3070      H3071   0.991       .  S
C3073      C3074   1.408       .  A
C3073      C3078   1.418       .  A
C3074      C3075   1.428       .  A
C3074      H3079   1.083       .  S
C3075      C3076   1.430       .  A
C3075      O3080   1.370       .  S
C3076      C3077   1.412       .  A
C3077      C3078   1.410       .  A
C3077      H3081   1.063       .  S
C3078      O3082   1.374       .  S
O3080      H3084   0.991       .  S
O3082      H3083   0.992       .  S
C3085      C3086   1.410       .  A
C3085      C3090   1.410       .  A
C3086      C3087   1.393       .  A
C3086      H3091   1.085       .  S
C3087      C3088   1.406       .  A
C3087      O3092   1.372       .  S
C3088      C3089   1.411       .  A
C3089      C3090   1.415       .  A
C3089      H3093   1.079   1_565  S
C3090      O3094   1.370       .  S
O3092      H3096   0.991       .  S
O3094      H3095   0.991       .  S
C3097      C3098   1.405       .  A
C3097      C3102   1.395       .  A
C3098      C3099   1.395       .  A
C3098      H3103   1.069       .  S
C3099      C3100   1.397       .  A
C3099      O3104   1.372       .  S
C3100      C3101   1.414       .  A
C3101      C3102   1.393       .  A
C3101      H3105   1.081       .  S
C3102      O3106   1.372       .  S
O3104      H3108   0.991       .  S
O3106      H3107   0.991       .  S
C3109      C3110   1.399       .  A
C3109      C3114   1.414       .  A
C3110      C3111   1.396       .  A
C3110      H3115   1.084       .  S
C3111      C3112   1.417       .  A
C3111      O3116   1.372       .  S
C3112      C3113   1.402       .  A
C3113      C3114   1.388       .  A
C3113      H3117   1.083       .  S
C3114      O3118   1.371       .  S
O3116      H3120   0.992       .  S
O3118      H3119   0.991       .  S
C3121      C3122   1.392       .  A
C3121      C3126   1.404       .  A
C3122      C3123   1.402       .  A
C3122      H3127   1.082       .  S
C3123      C3124   1.430       .  A
C3123      O3128   1.375       .  S
C3124      C3125   1.409       .  A
C3125      C3126   1.400       .  A
C3125      H3129   1.079       .  S
C3126      O3130   1.370       .  S
O3128      H3132   0.987       .  S
O3130      H3131   0.991       .  S
C3133      C3134   1.392       .  A
C3133      C3138   1.405       .  A
C3134      C3135   1.400       .  A
C3134      H3139   1.083       .  S
C3135      C3136   1.428       .  A
C3135      O3140   1.368       .  S
C3136      C3137   1.395       .  A
C3137      C3138   1.386       .  A
C3137      H3141   1.082       .  S
C3138      O3142   1.364       .  S
O3140      H3144   0.991       .  S
O3142      H3143   0.990       .  S
C3145      C3146   1.396       .  A
C3145      C3150   1.408       .  A
C3146      C3147   1.387       .  A
C3146      H3151   1.082       .  S
C3147      C3148   1.410       .  A
C3147      O3152   1.370       .  S
C3148      C3149   1.405       .  A
C3149      C3150   1.401       .  A
C3149      H3153   1.083       .  S
C3150      O3154   1.371       .  S
O3152      H3156   0.991       .  S
O3154      H3155   0.991       .  S
C3157      C3158   1.407       .  A
C3157      C3162   1.408       .  A
C3158      C3159   1.393       .  A
C3158      H3163   1.081       .  S
C3159      C3160   1.415       .  A
C3159      O3164   1.375       .  S
C3160      C3161   1.409       .  A
C3161      C3162   1.403       .  A
C3161      H3165   1.083       .  S
C3162      O3166   1.368       .  S
O3164      H3168   0.991       .  S
O3166      H3167   0.991       .  S
C3169      C3170   1.415       .  A
C3169      C3174   1.395       .  A
C3170      C3171   1.418       .  A
C3170      H3175   1.083       .  S
C3171      C3172   1.408       .  A
C3171      O3176   1.370       .  S
C3172      C3173   1.405       .  A
C3173      C3174   1.386       .  A
C3173      H3177   1.060       .  S
C3174      O3178   1.374       .  S
O3176      H3180   0.991       .  S
O3178      H3179   0.990       .  S
C3181      C3182   1.408       .  A
C3181      C3186   1.410       .  A
C3182      C3183   1.409       .  A
C3182      H3187   1.079       .  S
C3183      C3184   1.407       .  A
C3183      O3188   1.375   1_455  S
C3184      C3185   1.413       .  A
C3185      C3186   1.416       .  A
C3185      H3189   1.082       .  S
C3186      O3190   1.370       .  S
O3188      H3192   0.988   1_655  S
O3190      H3191   0.991       .  S
C3193      C3194   1.401       .  A
C3193      C3198   1.412       .  A
C3194      C3195   1.394       .  A
C3194      H3199   1.081       .  S
C3195      C3196   1.413       .  A
C3195      O3200   1.373       .  S
C3196      C3197   1.408       .  A
C3197      C3198   1.414       .  A
C3197      H3201   1.083       .  S
C3198      O3202   1.370   1_655  S
O3200      H3204   0.991       .  S
O3202      H3203   0.991       .  S
C3205      C3206   1.413       .  A
C3205      C3210   1.400       .  A
C3206      C3207   1.420       .  A
C3206      H3211   1.083   1_655  S
C3207      C3208   1.415       .  A
C3207      O3212   1.370       .  S
C3208      C3209   1.418       .  A
C3209      C3210   1.396       .  A
C3209      H3213   1.077       .  S
C3210      O3214   1.374       .  S
O3212      H3216   0.991       .  S
O3214      H3215   0.992       .  S
C3217      C3218   1.392       .  A
C3217      C3222   1.410   1_655  A
C3218      C3219   1.392       .  A
C3218      H3223   1.084       .  S
C3219      C3220   1.418       .  A
C3219      O3224   1.368       .  S
C3220      C3221   1.404       .  A
C3221      C3222   1.406   1_655  A
C3221      H3225   1.083       .  S
C3222      O3226   1.370       .  S
O3224      H3228   0.992       .  S
O3226      H3227   0.991       .  S
C3229      C3230   1.405   1_655  A
C3229      C3234   1.410       .  A
C3230      C3231   1.408   1_455  A
C3230      H3235   1.083       .  S
C3231      C3232   1.411       .  A
C3231      O3236   1.371       .  S
C3232      C3233   1.405       .  A
C3233      C3234   1.410       .  A
C3233      H3237   1.084       .  S
C3234      O3238   1.374       .  S
O3236      H3240   0.991       .  S
O3238      H3239   0.990       .  S
C3241      C3242   1.410       .  A
C3241      C3246   1.409       .  A
C3242      C3243   1.412       .  A
C3242      H3247   1.083       .  S
C3243      C3244   1.409       .  A
C3243      O3248   1.371       .  S
C3244      C3245   1.410       .  A
C3245      C3246   1.414       .  A
C3245      H3249   1.079       .  S
C3246      O3250   1.375       .  S
O3248      H3252   0.991       .  S
O3250      H3251   0.990       .  S
C3253      C3254   1.397       .  A
C3253      C3258   1.408       .  A
C3254      C3255   1.396       .  A
C3254      H3259   1.084       .  S
C3255      C3256   1.410       .  A
C3255      O3260   1.369       .  S
C3256      C3257   1.405       .  A
C3257      C3258   1.403       .  A
C3257      H3261   1.083       .  S
C3258      O3262   1.372       .  S
O3260      H3264   0.992       .  S
O3262      H3263   0.988       .  S
C3265      C3266   1.418       .  A
C3265      C3270   1.395       .  A
C3266      C3267   1.418       .  A
C3266      H3271   1.083       .  S
C3267      C3268   1.404       .  A
C3267      O3272   1.370       .  S
C3268      C3269   1.415       .  A
C3269      C3270   1.386       .  A
C3269      H3273   1.066       .  S
C3270      O3274   1.373       .  S
O3272      H3276   0.991       .  S
O3274      H3275   0.992       .  S
C3277      C3278   1.411       .  A
C3277      C3282   1.415       .  A
C3278      C3279   1.404       .  A
C3278      H3283   1.084       .  S
C3279      C3280   1.408       .  A
C3279      O3284   1.372       .  S
C3280      C3281   1.410       .  A
C3281      C3282   1.419       .  A
C3281      H3285   1.083       .  S
C3282      O3286   1.372       .  S
O3284      H3288   0.992       .  S
O3286      H3287   0.991       .  S
C3289      C3290   1.403       .  A
C3289      C3294   1.423       .  A
C3290      C3291   1.401       .  A
C3290      H3295   1.072       .  S
C3291      C3292   1.418       .  A
C3291      O3296   1.377       .  S
C3292      C3293   1.405       .  A
C3293      C3294   1.416       .  A
C3293      H3297   1.083       .  S
C3294      O3298   1.369       .  S
O3296      H3300   0.992       .  S
O3298      H3299   0.991       .  S
C3301      C3302   1.405       .  A
C3301      C3306   1.407       .  A
C3302      C3303   1.394       .  A
C3302      H3307   1.080       .  S
C3303      C3304   1.408       .  A
C3303      O3308   1.373       .  S
C3304      C3305   1.412       .  A
C3305      C3306   1.411       .  A
C3305      H3309   1.080       .  S
C3306      O3310   1.371       .  S
O3308      H3312   0.991       .  S
O3310      H3311   0.991       .  S
C3313      C3314   1.401       .  A
C3313      C3318   1.417       .  A
C3314      C3315   1.403       .  A
C3314      H3319   1.083       .  S
C3315      C3316   1.421       .  A
C3315      O3320   1.373       .  S
C3316      C3317   1.411       .  A
C3317      C3318   1.420       .  A
C3317      H3321   1.083       .  S
C3318      O3322   1.370       .  S
O3320      H3324   0.991       .  S
O3322      H3323   0.991       .  S
C3325      C3326   1.408       .  A
C3325      C3330   1.413       .  A
C3326      C3327   1.413       .  A
C3326      H3331   1.083       .  S
C3327      C3328   1.421       .  A
C3327      O3332   1.378       .  S
C3328      C3329   1.411       .  A
C3329      C3330   1.416       .  A
C3329      H3333   1.084       .  S
C3330      O3334   1.372       .  S
O3332      H3336   0.989       .  S
O3334      H3335   0.991       .  S
C3337      C3338   1.407       .  A
C3337      C3342   1.412       .  A
C3338      C3339   1.406       .  A
C3338      H3343   1.083       .  S
C3339      C3340   1.406       .  A
C3339      O3344   1.369       .  S
C3340      C3341   1.400       .  A
C3341      C3342   1.405       .  A
C3341      H3345   1.082       .  S
C3342      O3346   1.376       .  S
O3344      H3348   0.991       .  S
O3346      H3347   0.991       .  S
C3349      C3350   1.409       .  A
C3349      C3354   1.410       .  A
C3350      C3351   1.414       .  A
C3350      H3355   1.083       .  S
C3351      C3352   1.411       .  A
C3351      O3356   1.371       .  S
C3352      C3353   1.405       .  A
C3353      C3354   1.405       .  A
C3353      H3357   1.084       .  S
C3354      O3358   1.378       .  S
O3356      H3360   0.991       .  S
O3358      H3359   0.991       .  S
C3361      C3362   1.411       .  A
C3361      C3366   1.409       .  A
C3362      C3363   1.418       .  A
C3362      H3367   1.082       .  S
C3363      C3364   1.413       .  A
C3363      O3368   1.371       .  S
C3364      C3365   1.407       .  A
C3365      C3366   1.414       .  A
C3365      H3369   1.082       .  S
C3366      O3370   1.377       .  S
O3368      H3372   0.991       .  S
O3370      H3371   0.991       .  S
C3373      C3374   1.402       .  A
C3373      C3378   1.413       .  A
C3374      C3375   1.407       .  A
C3374      H3379   1.079       .  S
C3375      C3376   1.410       .  A
C3375      O3380   1.372       .  S
C3376      C3377   1.413       .  A
C3377      C3378   1.422       .  A
C3377      H3381   1.081       .  S
C3378      O3382   1.371       .  S
O3380      H3384   0.991       .  S
O3382      H3383   0.991       .  S
C3385      C3386   1.404       .  A
C3385      C3390   1.414       .  A
C3386      C3387   1.409       .  A
C3386      H3391   1.083       .  S
C3387      C3388   1.409       .  A
C3387      O3392   1.367       .  S
C3388      C3389   1.403       .  A
C3389      C3390   1.409       .  A
C3389      H3393   1.084       .  S
C3390      O3394   1.376       .  S
O3392      H3396   0.992       .  S
O3394      H3395   0.991       .  S
C3397      C3398   1.404       .  A
C3397      C3402   1.418       .  A
C3398      C3399   1.407       .  A
C3398      H3403   1.077       .  S
C3399      C3400   1.418       .  A
C3399      O3404   1.376       .  S
C3400      C3401   1.406       .  A
C3401      C3402   1.415       .  A
C3401      H3405   1.083       .  S
C3402      O3406   1.370       .  S
O3404      H3408   0.992       .  S
O3406      H3407   0.991       .  S
C3409      C3410   1.405       .  A
C3409      C3414   1.411       .  A
C3410      C3411   1.403       .  A
C3410      H3415   1.080       .  S
C3411      C3412   1.410       .  A
C3411      O3416   1.371       .  S
C3412      C3413   1.406       .  A
C3413      C3414   1.410       .  A
C3413      H3417   1.083       .  S
C3414      O3418   1.371       .  S
O3416      H3420   0.991       .  S
O3418      H3419   0.991       .  S
C3421      C3422   1.392       .  A
C3421      C3426   1.411       .  A
C3422      C3423   1.395       .  A
C3422      H3427   1.084       .  S
C3423      C3424   1.425       .  A
C3423      O3428   1.374       .  S
C3424      C3425   1.410       .  A
C3425      C3426   1.414       .  A
C3425      H3429   1.083       .  S
C3426      O3430   1.370       .  S
O3428      H3432   0.992       .  S
O3430      H3431   0.991       .  S
C3433      C3434   1.407       .  A
C3433      C3438   1.419       .  A
C3434      C3435   1.405       .  A
C3434      H3439   1.082       .  S
C3435      C3436   1.413       .  A
C3435      O3440   1.372       .  S
C3436      C3437   1.408       .  A
C3437      C3438   1.416       .  A
C3437      H3441   1.083       .  S
C3438      O3442   1.370       .  S
O3440      H3444   0.990       .  S
O3442      H3443   0.991       .  S
C3445      C3446   1.404       .  A
C3445      C3450   1.415       .  A
C3446      C3447   1.404       .  A
C3446      H3451   1.071       .  S
C3447      C3448   1.406       .  A
C3447      O3452   1.375       .  S
C3448      C3449   1.412       .  A
C3449      C3450   1.417       .  A
C3449      H3453   1.083       .  S
C3450      O3454   1.370       .  S
O3452      H3456   0.991       .  S
O3454      H3455   0.991       .  S
C3457      C3458   1.412       .  A
C3457      C3462   1.408       .  A
C3458      C3459   1.417       .  A
C3458      H3463   1.083       .  S
C3459      C3460   1.412       .  A
C3459      O3464   1.370       .  S
C3460      C3461   1.408       .  A
C3461      C3462   1.392       .  A
C3461      H3465   1.085       .  S
C3462      O3466   1.372       .  S
O3464      H3468   0.991       .  S
O3466      H3467   0.991       .  S
C3469      C3470   1.401       .  A
C3469      C3474   1.423       .  A
C3470      C3471   1.401       .  A
C3470      H3475   1.082       .  S
C3471      C3472   1.426       .  A
C3471      O3476   1.372       .  S
C3472      C3473   1.406       .  A
C3473      C3474   1.424       .  A
C3473      H3477   1.081       .  S
C3474      O3478   1.370       .  S
O3476      H3480   0.990       .  S
O3478      H3479   0.991       .  S
C3481      C3482   1.409       .  A
C3481      C3486   1.413       .  A
C3482      C3483   1.409       .  A
C3482      H3487   1.084   1_554  S
C3483      C3484   1.412       .  A
C3483      O3488   1.372       .  S
C3484      C3485   1.405       .  A
C3485      C3486   1.409       .  A
C3485      H3489   1.083       .  S
C3486      O3490   1.370       .  S
O3488      H3492   0.987   1_554  S
O3490      H3491   0.991       .  S
C3493      C3494   1.394       .  A
C3493      C3498   1.416       .  A
C3494      C3495   1.402       .  A
C3494      H3499   1.084       .  S
C3495      C3496   1.422       .  A
C3495      O3500   1.372       .  S
C3496      C3497   1.408       .  A
C3497      C3498   1.420       .  A
C3497      H3501   1.083       .  S
C3498      O3502   1.369   1_565  S
O3500      H3504   0.990       .  S
O3502      H3503   0.991       .  S
C3505      C3506   1.412       .  A
C3505      C3510   1.407       .  A
C3506      C3507   1.404       .  A
C3506      H3511   1.083       .  S
C3507      C3508   1.406       .  A
C3507      O3512   1.372       .  S
C3508      C3509   1.408       .  A
C3509      C3510   1.412       .  A
C3509      H3513   1.082       .  S
C3510      O3514   1.371   1_556  S
O3512      H3516   0.992       .  S
O3514      H3515   0.991       .  S
C3517      C3518   1.423       .  A
C3517      C3522   1.417   1_554  A
C3518      C3519   1.417   1_554  A
C3518      H3523   1.081       .  S
C3519      C3520   1.405       .  A
C3519      O3524   1.370   1_556  S
C3520      C3521   1.404       .  A
C3521      C3522   1.406       .  A
C3521      H3525   1.073       .  S
C3522      O3526   1.367       .  S
O3524      H3528   0.991   1_545  S
O3526      H3527   0.992       .  S
C3529      C3530   1.401       .  A
C3529      C3534   1.408       .  A
C3530      C3531   1.399       .  A
C3530      H3535   1.085       .  S
C3531      C3532   1.419       .  A
C3531      O3536   1.362       .  S
C3532      C3533   1.419       .  A
C3533      C3534   1.420       .  A
C3533      H3537   1.083       .  S
C3534      O3538   1.370       .  S
O3536      H3540   0.993       .  S
O3538      H3539   0.990       .  S
C3541      C3542   1.417       .  A
C3541      C3546   1.417       .  A
C3542      C3543   1.413       .  A
C3542      H3547   1.082       .  S
C3543      C3544   1.411       .  A
C3543      O3548   1.371       .  S
C3544      C3545   1.411       .  A
C3545      C3546   1.418       .  A
C3545      H3549   1.083       .  S
C3546      O3550   1.371       .  S
O3548      H3552   0.991       .  S
O3550      H3551   0.991       .  S
C3553      C3554   1.415       .  A
C3553      C3558   1.420       .  A
C3554      C3555   1.393       .  A
C3554      H3559   1.074       .  S
C3555      C3556   1.401       .  A
C3555      O3560   1.379       .  S
C3556      C3557   1.418       .  A
C3557      C3558   1.432       .  A
C3557      H3561   1.083       .  S
C3558      O3562   1.369       .  S
O3560      H3564   0.992       .  S
O3562      H3563   0.991       .  S
C3565      C3566   1.409       .  A
C3565      C3570   1.408       .  A
C3566      C3567   1.414       .  A
C3566      H3571   1.083       .  S
C3567      C3568   1.413       .  A
C3567      O3572   1.371       .  S
C3568      C3569   1.407       .  A
C3569      C3570   1.397       .  A
C3569      H3573   1.084       .  S
C3570      O3574   1.374       .  S
O3572      H3576   0.991       .  S
O3574      H3575   0.988       .  S
C3577      C3578   1.406       .  A
C3577      C3582   1.410       .  A
C3578      C3579   1.394       .  A
C3578      H3583   1.084       .  S
C3579      C3580   1.417       .  A
C3579      O3584   1.372       .  S
C3580      C3581   1.408       .  A
C3581      C3582   1.404       .  A
C3581      H3585   1.082       .  S
C3582      O3586   1.369       .  S
O3584      H3588   0.991       .  S
O3586      H3587   0.988       .  S
C3589      C3590   1.403       .  A
C3589      C3594   1.402       .  A
C3590      C3591   1.390       .  A
C3590      H3595   1.076       .  S
C3591      C3592   1.403       .  A
C3591      O3596   1.374       .  S
C3592      C3593   1.407       .  A
C3593      C3594   1.386       .  A
C3593      H3597   1.083       .  S
C3594      O3598   1.373       .  S
O3596      H3600   0.992       .  S
O3598      H3599   0.992       .  S
C3601      C3602   1.392       .  A
C3601      C3606   1.402       .  A
C3602      C3603   1.393       .  A
C3602      H3607   1.083       .  S
C3603      C3604   1.409       .  A
C3603      O3608   1.361       .  S
C3604      C3605   1.408       .  A
C3605      C3606   1.388       .  A
C3605      H3609   1.083       .  S
C3606      O3610   1.374       .  S
O3608      H3612   0.990       .  S
O3610      H3611   0.992       .  S
C3613      C3614   1.406       .  A
C3613      C3618   1.406       .  A
C3614      C3615   1.400       .  A
C3614      H3619   1.077       .  S
C3615      C3616   1.407       .  A
C3615      O3620   1.378       .  S
C3616      C3617   1.408       .  A
C3617      C3618   1.392       .  A
C3617      H3621   1.076       .  S
C3618      O3622   1.375       .  S
O3620      H3624   0.991       .  S
O3622      H3623   0.991       .  S
C3625      C3626   1.406       .  A
C3625      C3630   1.406       .  A
C3626      C3627   1.396       .  A
C3626      H3631   1.070       .  S
C3627      C3628   1.402       .  A
C3627      O3632   1.372       .  S
C3628      C3629   1.412       .  A
C3629      C3630   1.391       .  A
C3629      H3633   1.080       .  S
C3630      O3634   1.372       .  S
O3632      H3636   0.991       .  S
O3634      H3635   0.991       .  S
C3637      C3638   1.400       .  A
C3637      C3642   1.409       .  A
C3638      C3639   1.407       .  A
C3638      H3643   1.080       .  S
C3639      C3640   1.402       .  A
C3639      O3644   1.374       .  S
C3640      C3641   1.393       .  A
C3641      C3642   1.385       .  A
C3641      H3645   1.086       .  S
C3642      O3646   1.370       .  S
O3644      H3648   0.987       .  S
O3646      H3647   0.992       .  S
C3649      C3650   1.411       .  A
C3649      C3654   1.410       .  A
C3650      C3651   1.401       .  A
C3650      H3655   1.078       .  S
C3651      C3652   1.405       .  A
C3651      O3656   1.371       .  S
C3652      C3653   1.414       .  A
C3653      C3654   1.419       .  A
C3653      H3657   1.083       .  S
C3654      O3658   1.370       .  S
O3656      H3660   0.992       .  S
O3658      H3659   0.991       .  S
C3661      C3662   1.402       .  A
C3661      C3666   1.415       .  A
C3662      C3663   1.409       .  A
C3662      H3667   1.083       .  S
C3663      C3664   1.415       .  A
C3663      O3668   1.369       .  S
C3664      C3665   1.403       .  A
C3665      C3666   1.412       .  A
C3665      H3669   1.083       .  S
C3666      O3670   1.377       .  S
O3668      H3672   0.991       .  S
O3670      H3671   0.991       .  S
C3673      C3674   1.405       .  A
C3673      C3678   1.425       .  A
C3674      C3675   1.415       .  A
C3674      H3679   1.083       .  S
C3675      C3676   1.417       .  A
C3675      O3680   1.370       .  S
C3676      C3677   1.396       .  A
C3677      C3678   1.402       .  A
C3677      H3681   1.084       .  S
C3678      O3682   1.370       .  S
O3680      H3684   0.991       .  S
O3682      H3683   0.992       .  S
C3685      C3686   1.409       .  A
C3685      C3690   1.407       .  A
C3686      C3687   1.402       .  A
C3686      H3691   1.079       .  S
C3687      C3688   1.417       .  A
C3687      O3692   1.362       .  S
C3688      C3689   1.426       .  A
C3689      C3690   1.425       .  A
C3689      H3693   1.082       .  S
C3690      O3694   1.370       .  S
O3692      H3696   0.992       .  S
O3694      H3695   0.991       .  S
C3697      C3698   1.407       .  A
C3697      C3702   1.408       .  A
C3698      C3699   1.401       .  A
C3698      H3703   1.084       .  S
C3699      C3700   1.410       .  A
C3699      O3704   1.372       .  S
C3700      C3701   1.408       .  A
C3701      C3702   1.411       .  A
C3701      H3705   1.083       .  S
C3702      O3706   1.365       .  S
O3704      H3708   0.991       .  S
O3706      H3707   0.992       .  S
C3709      C3710   1.415       .  A
C3709      C3714   1.443       .  A
C3710      C3711   1.427       .  A
C3710      H3715   1.082       .  S
C3711      C3712   1.417       .  A
C3711      O3716   1.370       .  S
C3712      C3713   1.377       .  A
C3713      C3714   1.379       .  A
C3713      H3717   1.084       .  S
C3714      O3718   1.370       .  S
O3716      H3720   0.991       .  S
O3718      H3719   0.994       .  S
C3721      C3722   1.413       .  A
C3721      C3726   1.405       .  A
C3722      C3723   1.422       .  A
C3722      H3727   1.083       .  S
C3723      C3724   1.415       .  A
C3723      O3728   1.368       .  S
C3724      C3725   1.413       .  A
C3725      C3726   1.396       .  A
C3725      H3729   1.069       .  S
C3726      O3730   1.383       .  S
O3728      H3732   0.991       .  S
O3730      H3731   0.991       .  S
C3733      C3734   1.408       .  A
C3733      C3738   1.414       .  A
C3734      C3735   1.402       .  A
C3734      H3739   1.074       .  S
C3735      C3736   1.409       .  A
C3735      O3740   1.371       .  S
C3736      C3737   1.408       .  A
C3737      C3738   1.416       .  A
C3737      H3741   1.082       .  S
C3738      O3742   1.370       .  S
O3740      H3744   0.991       .  S
O3742      H3743   0.991       .  S
C3745      C3746   1.400       .  A
C3745      C3750   1.401       .  A
C3746      C3747   1.383       .  A
C3746      H3751   1.084       .  S
C3747      C3748   1.405       .  A
C3747      O3752   1.374       .  S
C3748      C3749   1.405       .  A
C3749      C3750   1.401       .  A
C3749      H3753   1.077       .  S
C3750      O3754   1.370       .  S
O3752      H3756   0.989       .  S
O3754      H3755   0.991       .  S
C3757      C3758   1.406       .  A
C3757      C3762   1.403       .  A
C3758      C3759   1.396       .  A
C3758      H3763   1.081       .  S
C3759      C3760   1.414       .  A
C3759      O3764   1.375       .  S
C3760      C3761   1.418       .  A
C3761      C3762   1.397       .  A
C3761      H3765   1.081       .  S
C3762      O3766   1.371       .  S
O3764      H3768   0.992       .  S
O3766      H3767   0.991       .  S
C3769      C3770   1.402       .  A
C3769      C3774   1.398       .  A
C3770      C3771   1.401       .  A
C3770      H3775   1.076       .  S
C3771      C3772   1.420       .  A
C3771      O3776   1.373       .  S
C3772      C3773   1.407       .  A
C3773      C3774   1.382       .  A
C3773      H3777   1.062       .  S
C3774      O3778   1.374       .  S
O3776      H3780   0.990       .  S
O3778      H3779   0.992       .  S
C3781      C3782   1.407       .  A
C3781      C3786   1.387       .  A
C3782      C3783   1.401       .  A
C3782      H3787   1.084       .  S
C3783      C3784   1.403       .  A
C3783      O3788   1.370       .  S
C3784      C3785   1.415       .  A
C3785      C3786   1.377       .  A
C3785      H3789   1.075       .  S
C3786      O3790   1.373       .  S
O3788      H3792   0.991       .  S
O3790      H3791   0.991       .  S
C3793      C3794   1.403       .  A
C3793      C3798   1.412       .  A
C3794      C3795   1.398       .  A
C3794      H3799   1.084       .  S
C3795      C3796   1.411       .  A
C3795      O3800   1.371       .  S
C3796      C3797   1.407       .  A
C3797      C3798   1.402       .  A
C3797      H3801   1.082       .  S
C3798      O3802   1.372       .  S
O3800      H3804   0.991       .  S
O3802      H3803   0.991       .  S
C3805      C3806   1.393       .  A
C3805      C3810   1.410       .  A
C3806      C3807   1.395       .  A
C3806      H3811   1.083       .  S
C3807      C3808   1.420       .  A
C3807      O3812   1.371       .  S
C3808      C3809   1.405       .  A
C3809      C3810   1.403       .  A
C3809      H3813   1.081       .  S
C3810      O3814   1.370       .  S
O3812      H3816   0.991       .  S
O3814      H3815   0.991       .  S
C3817      C3818   1.417       .  A
C3817      C3822   1.410       .  A
C3818      C3819   1.420       .  A
C3818      H3823   1.083       .  S
C3819      C3820   1.421       .  A
C3819      O3824   1.370       .  S
C3820      C3821   1.407       .  A
C3821      C3822   1.397       .  A
C3821      H3825   1.078       .  S
C3822      O3826   1.365       .  S
O3824      H3828   0.990       .  S
O3826      H3827   0.993       .  S
C3829      C3830   1.404       .  A
C3829      C3834   1.416       .  A
C3830      C3831   1.403       .  A
C3830      H3835   1.083       .  S
C3831      C3832   1.414       .  A
C3831      O3836   1.377       .  S
C3832      C3833   1.400       .  A
C3833      C3834   1.402       .  A
C3833      H3837   1.084       .  S
C3834      O3838   1.381       .  S
O3836      H3840   0.989       .  S
O3838      H3839   0.991       .  S
C3841      C3842   1.405       .  A
C3841      C3846   1.407       .  A
C3842      C3843   1.410       .  A
C3842      H3847   1.084       .  S
C3843      C3844   1.412       .  A
C3843      O3848   1.370       .  S
C3844      C3845   1.411       .  A
C3845      C3846   1.410       .  A
C3845      H3849   1.083       .  S
C3846      O3850   1.371       .  S
O3848      H3852   0.991       .  S
O3850      H3851   0.991       .  S
C3853      C3854   1.404       .  A
C3853      C3858   1.413       .  A
C3854      C3855   1.414       .  A
C3854      H3859   1.083       .  S
C3855      C3856   1.419       .  A
C3855      O3860   1.369       .  S
C3856      C3857   1.411       .  A
C3857      C3858   1.408       .  A
C3857      H3861   1.079       .  S
C3858      O3862   1.370       .  S
O3860      H3864   0.991       .  S
O3862      H3863   0.991       .  S
C3865      C3866   1.402       .  A
C3865      C3870   1.411       .  A
C3866      C3867   1.401       .  A
C3866      H3871   1.084       .  S
C3867      C3868   1.410       .  A
C3867      O3872   1.374       .  S
C3868      C3869   1.405       .  A
C3869      C3870   1.408       .  A
C3869      H3873   1.083       .  S
C3870      O3874   1.370       .  S
O3872      H3876   0.992       .  S
O3874      H3875   0.991       .  S
C3877      C3878   1.412       .  A
C3877      C3882   1.409       .  A
C3878      C3879   1.420       .  A
C3878      H3883   1.083       .  S
C3879      C3880   1.414       .  A
C3879      O3884   1.370       .  S
C3880      C3881   1.410       .  A
C3881      C3882   1.394       .  A
C3881      H3885   1.085       .  S
C3882      O3886   1.372       .  S
O3884      H3888   0.992       .  S
O3886      H3887   0.991       .  S
C3889      C3890   1.424       .  A
C3889      C3894   1.427       .  A
C3890      C3891   1.417       .  A
C3890      H3895   1.083       .  S
C3891      C3892   1.404       .  A
C3891      O3896   1.371       .  S
C3892      C3893   1.405       .  A
C3893      C3894   1.406       .  A
C3893      H3897   1.086       .  S
C3894      O3898   1.365       .  S
O3896      H3900   0.990       .  S
O3898      H3899   0.992       .  S
C3901      C3902   1.406       .  A
C3901      C3906   1.408       .  A
C3902      C3903   1.415       .  A
C3902      H3907   1.083       .  S
C3903      C3904   1.420       .  A
C3903      O3908   1.369       .  S
C3904      C3905   1.411       .  A
C3905      C3906   1.396       .  A
C3905      H3909   1.082       .  S
C3906      O3910   1.378       .  S
O3908      H3912   0.991       .  S
O3910      H3911   0.991       .  S
C3913      C3914   1.403       .  A
C3913      C3918   1.401       .  A
C3914      C3915   1.390       .  A
C3914      H3919   1.084       .  S
C3915      C3916   1.406       .  A
C3915      O3920   1.372       .  S
C3916      C3917   1.401       .  A
C3917      C3918   1.394       .  A
C3917      H3921   1.071       .  S
C3918      O3922   1.372       .  S
O3920      H3924   0.991       .  S
O3922      H3923   0.991       .  S
C3925      C3926   1.414       .  A
C3925      C3930   1.407       .  A
C3926      C3927   1.403       .  A
C3926      H3931   1.081       .  S
C3927      C3928   1.399       .  A
C3927      O3932   1.371       .  S
C3928      C3929   1.404       .  A
C3929      C3930   1.390       .  A
C3929      H3933   1.076       .  S
C3930      O3934   1.377       .  S
O3932      H3936   0.991       .  S
O3934      H3935   0.991       .  S
C3937      C3938   1.400       .  A
C3937      C3942   1.409       .  A
C3938      C3939   1.370       .  A
C3938      H3943   1.084       .  S
C3939      C3940   1.406       .  A
C3939      O3944   1.368       .  S
C3940      C3941   1.408       .  A
C3941      C3942   1.409       .  A
C3941      H3945   1.079       .  S
C3942      O3946   1.371       .  S
O3944      H3948   0.991       .  S
O3946      H3947   0.991       .  S
C3949      C3950   1.400       .  A
C3949      C3954   1.409       .  A
C3950      C3951   1.366       .  A
C3950      H3955   1.079       .  S
C3951      C3952   1.397       .  A
C3951      O3956   1.373       .  S
C3952      C3953   1.409       .  A
C3953      C3954   1.411       .  A
C3953      H3957   1.078       .  S
C3954      O3958   1.371       .  S
O3956      H3960   0.991       .  S
O3958      H3959   0.991       .  S
C3961      C3962   1.403       .  A
C3961      C3966   1.397       .  A
C3962      C3963   1.393       .  A
C3962      H3967   1.085       .  S
C3963      C3964   1.409       .  A
C3963      O3968   1.372       .  S
C3964      C3965   1.411       .  A
C3965      C3966   1.390       .  A
C3965      H3969   1.078       .  S
C3966      O3970   1.373       .  S
O3968      H3972   0.991       .  S
O3970      H3971   0.992       .  S
C3973      C3974   1.392       .  A
C3973      C3978   1.408       .  A
C3974      C3975   1.391       .  A
C3974      H3979   1.084       .  S
C3975      C3976   1.417       .  A
C3975      O3980   1.376       .  S
C3976      C3977   1.402       .  A
C3977      C3978   1.384       .  A
C3977      H3981   1.080       .  S
C3978      O3982   1.369       .  S
O3980      H3984   0.991       .  S
O3982      H3983   0.991       .  S
C3985      C3986   1.395       .  A
C3985      C3990   1.417       .  A
C3986      C3987   1.391       .  A
C3986      H3991   1.084       .  S
C3987      C3988   1.416       .  A
C3987      O3992   1.368       .  S
C3988      C3989   1.409       .  A
C3989      C3990   1.426       .  A
C3989      H3993   1.082       .  S
C3990      O3994   1.375       .  S
O3992      H3996   0.991       .  S
O3994      H3995   0.992       .  S
C3997      C3998   1.408       .  A
C3997      C4002   1.418       .  A
C3998      C3999   1.405       .  A
C3998      H4003   1.074       .  S
C3999      C4000   1.413       .  A
C3999      O4004   1.370       .  S
C4000      C4001   1.407       .  A
C4001      C4002   1.422       .  A
C4001      H4005   1.083       .  S
C4002      O4006   1.375       .  S
O4004      H4008   0.991       .  S
O4006      H4007   0.991       .  S
C4009      C4010   1.405       .  A
C4009      C4014   1.409       .  A
C4010      C4011   1.390       .  A
C4010      H4015   1.078       .  S
C4011      C4012   1.402       .  A
C4011      O4016   1.376       .  S
C4012      C4013   1.406       .  A
C4013      C4014   1.409       .  A
C4013      H4017   1.082       .  S
C4014      O4018   1.371       .  S
O4016      H4020   0.991       .  S
O4018      H4019   0.991       .  S
C4021      C4022   1.404       .  A
C4021      C4026   1.414       .  A
C4022      C4023   1.405       .  A
C4022      H4027   1.078       .  S
C4023      C4024   1.420       .  A
C4023      O4028   1.372       .  S
C4024      C4025   1.415       .  A
C4025      C4026   1.420       .  A
C4025      H4029   1.082       .  S
C4026      O4030   1.370       .  S
O4028      H4032   0.991       .  S
O4030      H4031   0.991       .  S
C4033      C4034   1.410       .  A
C4033      C4038   1.411       .  A
C4034      C4035   1.415       .  A
C4034      H4039   1.083       .  S
C4035      C4036   1.404       .  A
C4035      O4040   1.364       .  S
C4036      C4037   1.405       .  A
C4037      C4038   1.394       .  A
C4037      H4041   1.083       .  S
C4038      O4042   1.377       .  S
O4040      H4044   0.991       .  S
O4042      H4043   0.992       .  S
C4045      C4046   1.397       .  A
C4045      C4050   1.421       .  A
C4046      C4047   1.403       .  A
C4046      H4051   1.068       .  S
C4047      C4048   1.416       .  A
C4047      O4052   1.372       .  S
C4048      C4049   1.409       .  A
C4049      C4050   1.426       .  A
C4049      H4053   1.083       .  S
C4050      O4054   1.368   1_554  S
O4052      H4056   0.990       .  S
O4054      H4055   0.991       .  S
C4057      C4058   1.424       .  A
C4057      C4062   1.430       .  A
C4058      C4059   1.420       .  A
C4058      H4063   1.082       .  S
C4059      C4060   1.406       .  A
C4059      O4064   1.370       .  S
C4060      C4061   1.409       .  A
C4061      C4062   1.413       .  A
C4061      H4065   1.082       .  S
C4062      O4066   1.361       .  S
O4064      H4068   0.991       .  S
O4066      H4067   0.992       .  S
C4069      C4070   1.404       .  A
C4069      C4074   1.412       .  A
C4070      C4071   1.401   1_556  A
C4070      H4075   1.082   1_556  S
C4071      C4072   1.417       .  A
C4071      O4076   1.374       .  S
C4072      C4073   1.416   1_554  A
C4073      C4074   1.422       .  A
C4073      H4077   1.082       .  S
C4074      O4078   1.370       .  S
O4076      H4080   0.987       .  S
O4078      H4079   0.991       .  S
C4081      C4082   1.403       .  A
C4081      C4086   1.414       .  A
C4082      C4083   1.406       .  A
C4082      H4087   1.083       .  S
C4083      C4084   1.419       .  A
C4083      O4088   1.372       .  S
C4084      C4085   1.409       .  A
C4085      C4086   1.418       .  A
C4085      H4089   1.083       .  S
C4086      O4090   1.370   1_545  S
O4088      H4092   0.991       .  S
O4090      H4091   0.991   1_565  S
C4093      C4094   1.402       .  A
C4093      C4098   1.411       .  A
C4094      C4095   1.404       .  A
C4094      H4099   1.083   1_545  S
C4095      C4096   1.414       .  A
C4095      O4100   1.374       .  S
C4096      C4097   1.409       .  A
C4097      C4098   1.414       .  A
C4097      H4101   1.083       .  S
C4098      O4102   1.371       .  S
O4100      H4104   0.991       .  S
O4102      H4103   0.990       .  S
C4105      C4106   1.404       .  A
C4105      C4110   1.405       .  A
C4106      C4107   1.405       .  A
C4106      H4111   1.067       .  S
C4107      C4108   1.405       .  A
C4107      O4112   1.371       .  S
C4108      C4109   1.416       .  A
C4109      C4110   1.415       .  A
C4109      H4113   1.082       .  S
C4110      O4114   1.370       .  S
O4112      H4116   0.991       .  S
O4114      H4115   0.991       .  S
C4117      C4118   1.410       .  A
C4117      C4122   1.407       .  A
C4118      C4119   1.410       .  A
C4118      H4123   1.082       .  S
C4119      C4120   1.411       .  A
C4119      O4124   1.371       .  S
C4120      C4121   1.412       .  A
C4121      C4122   1.409       .  A
C4121      H4125   1.080       .  S
C4122      O4126   1.371       .  S
O4124      H4128   0.991       .  S
O4126      H4127   0.991       .  S
C4129      C4130   1.425       .  A
C4129      C4134   1.419       .  A
C4130      C4131   1.423       .  A
C4130      H4135   1.083       .  S
C4131      C4132   1.406       .  A
C4131      O4136   1.370       .  S
C4132      C4133   1.410       .  A
C4133      C4134   1.407       .  A
C4133      H4137   1.083       .  S
C4134      O4138   1.361       .  S
O4136      H4140   0.991       .  S
O4138      H4139   0.992       .  S
C4141      C4142   1.402   1_556  A
C4141      C4146   1.419       .  A
C4142      C4143   1.408       .  A
C4142      H4147   1.077       .  S
C4143      C4144   1.418   1_554  A
C4143      O4148   1.373       .  S
C4144      C4145   1.408       .  A
C4145      C4146   1.418       .  A
C4145      H4149   1.083       .  S
C4146      O4150   1.371       .  S
O4148      H4152   0.991       .  S
O4150      H4151   0.991       .  S
C4153      C4154   1.399       .  A
C4153      C4158   1.407       .  A
C4154      C4155   1.395       .  A
C4154      H4159   1.075   1_545  S
C4155      C4156   1.403       .  A
C4155      O4160   1.372       .  S
C4156      C4157   1.415       .  A
C4157      C4158   1.419       .  A
C4157      H4161   1.083       .  S
C4158      O4162   1.368       .  S
O4160      H4164   0.991       .  S
O4162      H4163   0.991       .  S
C4165      C4166   1.413       .  A
C4165      C4170   1.411       .  A
C4166      C4167   1.401       .  A
C4166      H4171   1.082       .  S
C4167      C4168   1.406       .  A
C4167      O4172   1.370       .  S
C4168      C4169   1.416       .  A
C4169      C4170   1.418       .  A
C4169      H4173   1.082       .  S
C4170      O4174   1.369       .  S
O4172      H4176   0.991       .  S
O4174      H4175   0.989       .  S
C4177      C4178   1.418       .  A
C4177      C4182   1.415       .  A
C4178      C4179   1.392       .  A
C4178      H4183   1.080       .  S
C4179      C4180   1.401       .  A
C4179      O4184   1.376       .  S
C4180      C4181   1.415       .  A
C4181      C4182   1.426       .  A
C4181      H4185   1.083       .  S
C4182      O4186   1.366       .  S
O4184      H4188   0.990       .  S
O4186      H4187   0.990       .  S
C4189      C4190   1.413       .  A
C4189      C4194   1.411       .  A
C4190      C4191   1.415       .  A
C4190      H4195   1.081       .  S
C4191      C4192   1.411       .  A
C4191      O4196   1.374       .  S
C4192      C4193   1.411       .  A
C4193      C4194   1.414       .  A
C4193      H4197   1.083       .  S
C4194      O4198   1.371       .  S
O4196      H4200   0.991       .  S
O4198      H4199   0.991       .  S
C4201      C4202   1.413       .  A
C4201      C4206   1.413       .  A
C4202      C4203   1.421       .  A
C4202      H4207   1.081       .  S
C4203      C4204   1.412       .  A
C4203      O4208   1.370       .  S
C4204      C4205   1.404       .  A
C4205      C4206   1.404       .  A
C4205      H4209   1.080       .  S
C4206      O4210   1.373       .  S
O4208      H4212   0.991       .  S
O4210      H4211   0.991       .  S
C4213      C4214   1.412       .  A
C4213      C4218   1.404       .  A
C4214      C4215   1.419       .  A
C4214      H4219   1.083       .  S
C4215      C4216   1.413       .  A
C4215      O4220   1.371       .  S
C4216      C4217   1.410       .  A
C4217      C4218   1.390       .  A
C4217      H4221   1.084       .  S
C4218      O4222   1.373       .  S
O4220      H4224   0.991       .  S
O4222      H4223   0.991       .  S
C4225      C4226   1.393       .  A
C4225      C4230   1.418       .  A
C4226      C4227   1.405       .  A
C4226      H4231   1.083       .  S
C4227      C4228   1.424       .  A
C4227      O4232   1.366       .  S
C4228      C4229   1.409       .  A
C4229      C4230   1.422       .  A
C4229      H4233   1.083       .  S
C4230      O4234   1.369       .  S
O4232      H4236   0.993   1_545  S
O4234      H4235   0.991       .  S
C4237      C4238   1.408       .  A
C4237      C4242   1.412       .  A
C4238      C4239   1.415       .  A
C4238      H4243   1.084   1_565  S
C4239      C4240   1.412       .  A
C4239      O4244   1.376       .  S
C4240      C4241   1.405       .  A
C4241      C4242   1.409       .  A
C4241      H4245   1.083       .  S
C4242      O4246   1.371       .  S
O4244      H4248   0.991   1_565  S
O4246      H4247   0.990       .  S
C4249      C4250   1.413       .  A
C4249      C4254   1.410       .  A
C4250      C4251   1.415       .  A
C4250      H4255   1.082       .  S
C4251      C4252   1.409       .  A
C4251      O4256   1.371       .  S
C4252      C4253   1.408       .  A
C4253      C4254   1.410       .  A
C4253      H4257   1.081       .  S
C4254      O4258   1.371   1_554  S
O4256      H4260   0.990       .  S
O4258      H4259   0.991       .  S
C4261      C4262   1.410       .  A
C4261      C4266   1.431       .  A
C4262      C4263   1.420       .  A
C4262      H4267   1.082       .  S
C4263      C4264   1.416       .  A
C4263      O4268   1.369       .  S
C4264      C4265   1.396       .  A
C4265      C4266   1.408       .  A
C4265      H4269   1.082       .  S
C4266      O4270   1.374   1_556  S
O4268      H4272   0.991       .  S
O4270      H4271   0.993       .  S
C4273      C4274   1.396       .  A
C4273      C4278   1.417       .  A
C4274      C4275   1.388       .  A
C4274      H4279   1.084       .  S
C4275      C4276   1.412       .  A
C4275      O4280   1.361       .  S
C4276      C4277   1.398       .  A
C4277      C4278   1.402       .  A
C4277      H4281   1.084       .  S
C4278      O4282   1.373       .  S
O4280      H4284   0.986   1_565  S
O4282      H4283   0.990       .  S
C4285      C4286   1.399       .  A
C4285      C4290   1.399       .  A
C4286      C4287   1.391       .  A
C4286      H4291   1.082       .  S
C4287      C4288   1.412       .  A
C4287      O4292   1.370       .  S
C4288      C4289   1.416       .  A
C4289      C4290   1.392       .  A
C4289      H4293   1.080       .  S
C4290      O4294   1.373       .  S
O4292      H4296   0.991       .  S
O4294      H4295   0.988       .  S
C4297      C4298   1.406       .  A
C4297      C4302   1.398       .  A
C4298      C4299   1.391       .  A
C4298      H4303   1.073       .  S
C4299      C4300   1.395       .  A
C4299      O4304   1.367       .  S
C4300      C4301   1.417       .  A
C4301      C4302   1.385       .  A
C4301      H4305   1.075       .  S
C4302      O4306   1.373       .  S
O4304      H4308   0.988       .  S
O4306      H4307   0.992       .  S
C4309      C4310   1.396       .  A
C4309      C4314   1.409       .  A
C4310      C4311   1.395       .  A
C4310      H4315   1.084       .  S
C4311      C4312   1.424       .  A
C4311      O4316   1.371       .  S
C4312      C4313   1.383       .  A
C4313      C4314   1.383       .  A
C4313      H4317   1.085       .  S
C4314      O4318   1.353       .  S
O4316      H4320   0.991       .  S
O4318      H4319   0.993       .  S
C4321      C4322   1.384       .  A
C4321      C4326   1.414   1_554  A
C4322      C4323   1.386       .  A
C4322      H4327   1.084       .  S
C4323      C4324   1.420   1_554  A
C4323      O4328   1.365       .  S
C4324      C4325   1.390       .  A
C4325      C4326   1.392       .  A
C4325      H4329   1.084       .  S
C4326      O4330   1.365       .  S
O4328      H4332   0.991       .  S
O4330      H4331   0.991   1_556  S
C4333      C4334   1.409       .  A
C4333      C4338   1.410   1_545  A
C4334      C4335   1.402   1_545  A
C4334      H4339   1.075       .  S
C4335      C4336   1.395       .  A
C4335      O4340   1.379       .  S
C4336      C4337   1.403       .  A
C4337      C4338   1.393       .  A
C4337      H4341   1.074       .  S
C4338      O4342   1.371   1_565  S
O4340      H4344   0.990       .  S
O4342      H4343   0.991       .  S
C4345      C4346   1.407       .  A
C4345      C4350   1.412       .  A
C4346      C4347   1.411       .  A
C4346      H4351   1.084       .  S
C4347      C4348   1.409       .  A
C4347      O4352   1.375       .  S
C4348      C4349   1.404       .  A
C4349      C4350   1.406       .  A
C4349      H4353   1.083       .  S
C4350      O4354   1.372       .  S
O4352      H4356   0.991       .  S
O4354      H4355   0.991       .  S
C4357      C4358   1.404       .  A
C4357      C4362   1.407       .  A
C4358      C4359   1.409       .  A
C4358      H4363   1.083       .  S
C4359      C4360   1.407       .  A
C4359      O4364   1.372       .  S
C4360      C4361   1.412       .  A
C4361      C4362   1.410       .  A
C4361      H4365   1.083   1_556  S
C4362      O4366   1.373       .  S
O4364      H4368   0.992       .  S
O4366      H4367   0.991   1_556  S
C4369      C4370   1.408       .  A
C4369      C4374   1.413       .  A
C4370      C4371   1.410       .  A
C4370      H4375   1.083       .  S
C4371      C4372   1.411       .  A
C4371      O4376   1.370       .  S
C4372      C4373   1.401       .  A
C4373      C4374   1.406       .  A
C4373      H4377   1.083   1_554  S
C4374      O4378   1.373       .  S
O4376      H4380   0.991       .  S
O4378      H4379   0.992       .  S
C4381      C4382   1.408       .  A
C4381      C4386   1.406       .  A
C4382      C4383   1.409       .  A
C4382      H4387   1.082       .  S
C4383      C4384   1.409       .  A
C4383      O4388   1.371       .  S
C4384      C4385   1.408       .  A
C4385      C4386   1.398       .  A
C4385      H4389   1.084       .  S
C4386      O4390   1.371       .  S
O4388      H4392   0.991       .  S
O4390      H4391   0.991       .  S
C4393      C4394   1.394       .  A
C4393      C4398   1.416       .  A
C4394      C4395   1.401       .  A
C4394      H4399   1.079       .  S
C4395      C4396   1.434       .  A
C4395      O4400   1.370   1_655  S
C4396      C4397   1.419       .  A
C4397      C4398   1.423       .  A
C4397      H4401   1.081       .  S
C4398      O4402   1.370       .  S
O4400      H4404   0.993       .  S
O4402      H4403   0.991       .  S
C4405      C4406   1.402       .  A
C4405      C4410   1.405       .  A
C4406      C4407   1.402       .  A
C4406      H4411   1.084       .  S
C4407      C4408   1.415       .  A
C4407      O4412   1.375       .  S
C4408      C4409   1.402       .  A
C4409      C4410   1.402       .  A
C4409      H4413   1.084       .  S
C4410      O4414   1.366       .  S
O4412      H4416   0.992       .  S
O4414      H4415   0.992       .  S
C4417      C4418   1.409       .  A
C4417      C4422   1.418       .  A
C4418      C4419   1.417       .  A
C4418      H4423   1.083       .  S
C4419      C4420   1.415       .  A
C4419      O4424   1.370   1_455  S
C4420      C4421   1.399       .  A
C4421      C4422   1.398       .  A
C4421      H4425   1.082       .  S
C4422      O4426   1.377       .  S
O4424      H4428   0.991       .  S
O4426      H4427   0.992       .  S
C4429      C4430   1.405       .  A
C4429      C4434   1.407       .  A
C4430      C4431   1.396       .  A
C4430      H4435   1.079       .  S
C4431      C4432   1.407       .  A
C4431      O4436   1.372       .  S
C4432      C4433   1.405       .  A
C4433      C4434   1.409       .  A
C4433      H4437   1.082   1_455  S
C4434      O4438   1.366       .  S
O4436      H4440   0.991       .  S
O4438      H4439   0.992       .  S
C4441      C4442   1.407   1_556  A
C4441      C4446   1.409       .  A
C4442      C4443   1.401       .  A
C4442      H4447   1.078       .  S
C4443      C4444   1.405   1_554  A
C4443      O4448   1.377       .  S
C4444      C4445   1.405       .  A
C4445      C4446   1.409       .  A
C4445      H4449   1.083       .  S
C4446      O4450   1.371       .  S
O4448      H4452   0.992       .  S
O4450      H4451   0.992       .  S
C4453      C4454   1.404       .  A
C4453      C4458   1.416       .  A
C4454      C4455   1.417       .  A
C4454      H4459   1.083       .  S
C4455      C4456   1.424       .  A
C4455      O4460   1.370       .  S
C4456      C4457   1.399       .  A
C4457      C4458   1.386       .  A
C4457      H4461   1.072       .  S
C4458      O4462   1.371       .  S
O4460      H4464   0.991       .  S
O4462      H4463   0.991       .  S
C4465      C4466   1.404       .  A
C4465      C4470   1.417       .  A
C4466      C4467   1.413       .  A
C4466      H4471   1.083       .  S
C4467      C4468   1.416       .  A
C4467      O4472   1.370       .  S
C4468      C4469   1.401       .  A
C4469      C4470   1.404       .  A
C4469      H4473   1.082       .  S
C4470      O4474   1.370       .  S
O4472      H4476   0.991       .  S
O4474      H4475   0.991       .  S
C4477      C4478   1.409       .  A
C4477      C4482   1.405       .  A
C4478      C4479   1.406       .  A
C4478      H4483   1.083       .  S
C4479      C4480   1.411       .  A
C4479      O4484   1.371   1_455  S
C4480      C4481   1.413       .  A
C4481      C4482   1.407       .  A
C4481      H4485   1.084       .  S
C4482      O4486   1.371       .  S
O4484      H4488   0.991       .  S
O4486      H4487   0.991       .  S
C4489      C4490   1.410       .  A
C4489      C4494   1.408       .  A
C4490      C4491   1.406       .  A
C4490      H4495   1.079       .  S
C4491      C4492   1.411       .  A
C4491      O4496   1.372       .  S
C4492      C4493   1.417       .  A
C4493      C4494   1.414       .  A
C4493      H4497   1.082       .  S
C4494      O4498   1.372       .  S
O4496      H4500   0.992       .  S
O4498      H4499   0.989       .  S
C4501      C4502   1.405       .  A
C4501      C4506   1.411       .  A
C4502      C4503   1.407       .  A
C4502      H4507   1.083       .  S
C4503      C4504   1.410       .  A
C4503      O4508   1.371       .  S
C4504      C4505   1.404       .  A
C4505      C4506   1.406       .  A
C4505      H4509   1.083       .  S
C4506      O4510   1.372       .  S
O4508      H4512   0.991       .  S
O4510      H4511   0.991       .  S
C4513      C4514   1.406       .  A
C4513      C4518   1.410       .  A
C4514      C4515   1.400       .  A
C4514      H4519   1.083       .  S
C4515      C4516   1.409       .  A
C4515      O4520   1.372       .  S
C4516      C4517   1.411       .  A
C4517      C4518   1.415       .  A
C4517      H4521   1.083       .  S
C4518      O4522   1.370       .  S
O4520      H4524   0.991       .  S
O4522      H4523   0.991       .  S
C4525      C4526   1.410       .  A
C4525      C4530   1.411       .  A
C4526      C4527   1.417       .  A
C4526      H4531   1.083       .  S
C4527      C4528   1.412       .  A
C4527      O4532   1.371       .  S
C4528      C4529   1.394       .  A
C4529      C4530   1.386       .  A
C4529      H4533   1.078       .  S
C4530      O4534   1.373       .  S
O4532      H4536   0.991       .  S
O4534      H4535   0.991       .  S
C4537      C4538   1.412       .  A
C4537      C4542   1.412       .  A
C4538      C4539   1.414       .  A
C4538      H4543   1.083       .  S
C4539      C4540   1.410       .  A
C4539      O4544   1.371       .  S
C4540      C4541   1.409       .  A
C4541      C4542   1.407       .  A
C4541      H4545   1.084   1_655  S
C4542      O4546   1.371       .  S
O4544      H4548   0.991       .  S
O4546      H4547   0.992       .  S
C4549      C4550   1.409   1_556  A
C4549      C4554   1.409       .  A
C4550      C4551   1.411   1_554  A
C4550      H4555   1.084       .  S
C4551      C4552   1.409       .  A
C4551      O4556   1.374   1_556  S
C4552      C4553   1.405       .  A
C4553      C4554   1.403       .  A
C4553      H4557   1.083       .  S
C4554      O4558   1.373       .  S
O4556      H4560   0.991       .  S
O4558      H4559   0.992       .  S
C4561      C4562   1.402       .  A
C4561      C4566   1.401       .  A
C4562      C4563   1.399       .  A
C4562      H4567   1.084       .  S
C4563      C4564   1.405       .  A
C4563      O4568   1.372       .  S
C4564      C4565   1.415       .  A
C4565      C4566   1.389       .  A
C4565      H4569   1.082       .  S
C4566      O4570   1.373       .  S
O4568      H4572   0.992       .  S
O4570      H4571   0.991       .  S
C4573      C4574   1.405       .  A
C4573      C4578   1.405       .  A
C4574      C4575   1.396       .  A
C4574      H4579   1.083       .  S
C4575      C4576   1.397       .  A
C4575      O4580   1.360       .  S
C4576      C4577   1.411       .  A
C4577      C4578   1.393       .  A
C4577      H4581   1.081       .  S
C4578      O4582   1.371       .  S
O4580      H4584   0.991       .  S
O4582      H4583   0.991       .  S
C4585      C4586   1.411       .  A
C4585      C4590   1.402       .  A
C4586      C4587   1.399       .  A
C4586      H4591   1.084       .  S
C4587      C4588   1.398       .  A
C4587      O4592   1.369       .  S
C4588      C4589   1.403       .  A
C4589      C4590   1.385       .  A
C4589      H4593   1.084       .  S
C4590      O4594   1.367       .  S
O4592      H4596   0.991       .  S
O4594      H4595   0.991       .  S
C4597      C4598   1.413       .  A
C4597      C4602   1.415       .  A
C4598      C4599   1.402       .  A
C4598      H4603   1.083       .  S
C4599      C4600   1.410       .  A
C4599      O4604   1.371   1_655  S
C4600      C4601   1.407       .  A
C4601      C4602   1.400       .  A
C4601      H4605   1.083       .  S
C4602      O4606   1.372       .  S
O4604      H4608   0.991       .  S
O4606      H4607   0.992       .  S
C4609      C4610   1.414       .  A
C4609      C4614   1.392       .  A
C4610      C4611   1.394   1_554  A
C4610      H4615   1.073   1_554  S
C4611      C4612   1.392       .  A
C4611      O4616   1.371       .  S
C4612      C4613   1.416   1_556  A
C4613      C4614   1.391       .  A
C4613      H4617   1.078       .  S
C4614      O4618   1.371       .  S
O4616      H4620   0.991       .  S
O4618      H4619   0.991       .  S
C4621      C4622   1.402       .  A
C4621      C4626   1.416       .  A
C4622      C4623   1.390       .  A
C4622      H4627   1.081       .  S
C4623      C4624   1.413       .  A
C4623      O4628   1.371       .  S
C4624      C4625   1.410       .  A
C4625      C4626   1.405       .  A
C4625      H4629   1.084       .  S
C4626      O4630   1.373       .  S
O4628      H4632   0.991       .  S
O4630      H4631   0.991       .  S
C4633      C4634   1.404   1_545  A
C4633      C4638   1.416       .  A
C4634      C4635   1.410   1_565  A
C4634      H4639   1.083       .  S
C4635      C4636   1.415       .  A
C4635      O4640   1.371       .  S
C4636      C4637   1.405       .  A
C4637      C4638   1.408       .  A
C4637      H4641   1.084       .  S
C4638      O4642   1.375       .  S
O4640      H4644   0.991       .  S
O4642      H4643   0.991       .  S
C4645      C4646   1.405       .  A
C4645      C4650   1.423   1_545  A
C4646      C4647   1.407       .  A
C4646      H4651   1.070       .  S
C4647      C4648   1.417       .  A
C4647      O4652   1.374       .  S
C4648      C4649   1.406       .  A
C4649      C4650   1.419   1_545  A
C4649      H4653   1.083       .  S
C4650      O4654   1.370       .  S
O4652      H4656   0.992       .  S
O4654      H4655   0.991       .  S
C4657      C4658   1.405       .  A
C4657      C4662   1.414       .  A
C4658      C4659   1.409       .  A
C4658      H4663   1.083       .  S
C4659      C4660   1.412       .  A
C4659      O4664   1.370       .  S
C4660      C4661   1.410       .  A
C4661      C4662   1.416       .  A
C4661      H4665   1.083       .  S
C4662      O4666   1.371       .  S
O4664      H4668   0.991       .  S
O4666      H4667   0.991       .  S
C4669      C4670   1.411       .  A
C4669      C4674   1.418   1_545  A
C4670      C4671   1.399       .  A
C4670      H4675   1.082       .  S
C4671      C4672   1.408   1_545  A
C4671      O4676   1.376       .  S
C4672      C4673   1.411       .  A
C4673      C4674   1.422       .  A
C4673      H4677   1.083       .  S
C4674      O4678   1.371       .  S
O4676      H4680   0.991       .  S
O4678      H4679   0.991       .  S
C4681      C4682   1.416       .  A
C4681      C4686   1.409       .  A
C4682      C4683   1.416       .  A
C4682      H4687   1.080       .  S
C4683      C4684   1.409       .  A
C4683      O4688   1.372       .  S
C4684      C4685   1.412       .  A
C4685      C4686   1.406       .  A
C4685      H4689   1.081   1_655  S
C4686      O4690   1.369   1_655  S
O4688      H4692   0.991       .  S
O4690      H4691   0.991       .  S
C4693      C4694   1.392       .  A
C4693      C4698   1.417       .  A
C4694      C4695   1.406       .  A
C4694      H4699   1.080       .  S
C4695      C4696   1.438       .  A
C4695      O4700   1.368       .  S
C4696      C4697   1.417       .  A
C4697      C4698   1.424       .  A
C4697      H4701   1.081       .  S
C4698      O4702   1.370       .  S
O4700      H4704   0.992   1_455  S
O4702      H4703   0.991       .  S
C4705      C4706   1.414       .  A
C4705      C4710   1.406       .  A
C4706      C4707   1.400       .  A
C4706      H4711   1.078       .  S
C4707      C4708   1.405       .  A
C4707      O4712   1.372       .  S
C4708      C4709   1.415       .  A
C4709      C4710   1.415       .  A
C4709      H4713   1.081       .  S
C4710      O4714   1.370       .  S
O4712      H4716   0.989       .  S
O4714      H4715   0.991       .  S
C4717      C4718   1.405       .  A
C4717      C4722   1.408       .  A
C4718      C4719   1.394       .  A
C4718      H4723   1.080       .  S
C4719      C4720   1.404       .  A
C4719      O4724   1.373   1_545  S
C4720      C4721   1.407       .  A
C4721      C4722   1.409       .  A
C4721      H4725   1.083       .  S
C4722      O4726   1.370       .  S
O4724      H4728   0.991       .  S
O4726      H4727   0.991       .  S
C4729      C4730   1.407       .  A
C4729      C4734   1.411       .  A
C4730      C4731   1.406       .  A
C4730      H4735   1.083       .  S
C4731      C4732   1.405       .  A
C4731      O4736   1.370       .  S
C4732      C4733   1.401       .  A
C4733      C4734   1.398       .  A
C4733      H4737   1.080       .  S
C4734      O4738   1.374       .  S
O4736      H4740   0.991       .  S
O4738      H4739   0.992       .  S
C4741      C4742   1.407       .  A
C4741      C4746   1.419       .  A
C4742      C4743   1.414       .  A
C4742      H4747   1.083       .  S
C4743      C4744   1.417       .  A
C4743      O4748   1.370       .  S
C4744      C4745   1.410       .  A
C4745      C4746   1.421       .  A
C4745      H4749   1.084       .  S
C4746      O4750   1.372       .  S
O4748      H4752   0.991       .  S
O4750      H4751   0.992       .  S
C4753      C4754   1.416       .  A
C4753      C4758   1.412       .  A
C4754      C4755   1.405       .  A
C4754      H4759   1.079       .  S
C4755      C4756   1.405       .  A
C4755      O4760   1.373       .  S
C4756      C4757   1.416       .  A
C4757      C4758   1.422       .  A
C4757      H4761   1.083       .  S
C4758      O4762   1.370       .  S
O4760      H4764   0.992       .  S
O4762      H4763   0.991       .  S
C4765      C4766   1.407       .  A
C4765      C4770   1.408       .  A
C4766      C4767   1.411       .  A
C4766      H4771   1.083       .  S
C4767      C4768   1.409       .  A
C4767      O4772   1.370       .  S
C4768      C4769   1.402       .  A
C4769      C4770   1.397       .  A
C4769      H4773   1.082       .  S
C4770      O4774   1.373   1_565  S
O4772      H4776   0.991       .  S
O4774      H4775   0.992       .  S
C4777      C4778   1.396       .  A
C4777      C4782   1.406   1_655  A
C4778      C4779   1.389       .  A
C4778      H4783   1.085       .  S
C4779      C4780   1.417   1_655  A
C4779      O4784   1.372       .  S
C4780      C4781   1.407       .  A
C4781      C4782   1.399       .  A
C4781      H4785   1.083       .  S
C4782      O4786   1.371   1_545  S
O4784      H4788   0.991       .  S
O4786      H4787   0.991       .  S
C4789      C4790   1.405       .  A
C4789      C4794   1.405       .  A
C4790      C4791   1.396       .  A
C4790      H4795   1.084       .  S
C4791      C4792   1.410       .  A
C4791      O4796   1.372       .  S
C4792      C4793   1.407       .  A
C4793      C4794   1.386       .  A
C4793      H4797   1.080       .  S
C4794      O4798   1.374       .  S
O4796      H4800   0.992       .  S
O4798      H4799   0.990       .  S
C4801      C4802   1.408       .  A
C4801      C4806   1.403       .  A
C4802      C4803   1.400       .  A
C4802      H4807   1.084       .  S
C4803      C4804   1.409       .  A
C4803      O4808   1.373       .  S
C4804      C4805   1.410       .  A
C4805      C4806   1.389       .  A
C4805      H4809   1.078       .  S
C4806      O4810   1.372       .  S
O4808      H4812   0.991       .  S
O4810      H4811   0.992       .  S
C4813      C4814   1.392       .  A
C4813      C4818   1.407       .  A
C4814      C4815   1.393       .  A
C4814      H4819   1.082       .  S
C4815      C4816   1.423       .  A
C4815      O4820   1.370       .  S
C4816      C4817   1.401       .  A
C4817      C4818   1.391       .  A
C4817      H4821   1.084       .  S
C4818      O4822   1.370       .  S
O4820      H4824   0.992       .  S
O4822      H4823   0.991       .  S
C4825      C4826   1.394       .  A
C4825      C4830   1.395       .  A
C4826      C4827   1.404   1_455  A
C4826      H4831   1.066   1_455  S
C4827      C4828   1.410       .  A
C4827      O4832   1.372       .  S
C4828      C4829   1.415   1_655  A
C4829      C4830   1.391       .  A
C4829      H4833   1.073       .  S
C4830      O4834   1.371       .  S
O4832      H4836   0.991       .  S
O4834      H4835   0.991       .  S
C4837      C4838   1.411       .  A
C4837      C4842   1.405       .  A
C4838      C4839   1.417       .  A
C4838      H4843   1.081       .  S
C4839      C4840   1.408       .  A
C4839      O4844   1.368       .  S
C4840      C4841   1.383       .  A
C4841      C4842   1.373       .  A
C4841      H4845   1.081       .  S
C4842      O4846   1.370       .  S
O4844      H4848   0.991       .  S
O4846      H4847   0.989   1_545  S
C4849      C4850   1.418       .  A
C4849      C4854   1.410       .  A
C4850      C4851   1.413       .  A
C4850      H4855   1.083       .  S
C4851      C4852   1.404       .  A
C4851      O4856   1.371       .  S
C4852      C4853   1.407       .  A
C4853      C4854   1.397       .  A
C4853      H4857   1.082       .  S
C4854      O4858   1.367       .  S
O4856      H4860   0.991       .  S
O4858      H4859   0.992       .  S
C4861      C4862   1.411       .  A
C4861      C4866   1.412   1_655  A
C4862      C4863   1.419       .  A
C4862      H4867   1.083       .  S
C4863      C4864   1.414   1_655  A
C4863      O4868   1.371       .  S
C4864      C4865   1.405       .  A
C4865      C4866   1.400       .  A
C4865      H4869   1.084       .  S
C4866      O4870   1.375       .  S
O4868      H4872   0.991       .  S
O4870      H4871   0.991       .  S
C4873      C4874   1.404       .  A
C4873      C4878   1.412       .  A
C4874      C4875   1.405       .  A
C4874      H4879   1.083       .  S
C4875      C4876   1.408       .  A
C4875      O4880   1.366       .  S
C4876      C4877   1.406       .  A
C4877      C4878   1.409       .  A
C4877      H4881   1.079       .  S
C4878      O4882   1.375       .  S
O4880      H4884   0.991       .  S
O4882      H4883   0.992       .  S
C4885      C4886   1.417       .  A
C4885      C4890   1.411       .  A
C4886      C4887   1.417       .  A
C4886      H4891   1.083       .  S
C4887      C4888   1.409       .  A
C4887      O4892   1.370       .  S
C4888      C4889   1.413       .  A
C4889      C4890   1.406       .  A
C4889      H4893   1.083       .  S
C4890      O4894   1.369       .  S
O4892      H4896   0.991       .  S
O4894      H4895   0.991       .  S
C4897      C4898   1.419       .  A
C4897      C4902   1.414       .  A
C4898      C4899   1.396       .  A
C4898      H4903   1.078       .  S
C4899      C4900   1.401       .  A
C4899      O4904   1.374       .  S
C4900      C4901   1.411       .  A
C4901      C4902   1.418       .  A
C4901      H4905   1.083   1_455  S
C4902      O4906   1.367       .  S
O4904      H4908   0.992       .  S
O4906      H4907   0.991       .  S
C4909      C4910   1.406       .  A
C4909      C4914   1.410       .  A
C4910      C4911   1.408       .  A
C4910      H4915   1.083       .  S
C4911      C4912   1.408       .  A
C4911      O4916   1.371   1_455  S
C4912      C4913   1.401       .  A
C4913      C4914   1.395       .  A
C4913      H4917   1.083       .  S
C4914      O4918   1.374       .  S
O4916      H4920   0.991   1_655  S
O4918      H4919   0.991       .  S
C4921      C4922   1.411       .  A
C4921      C4926   1.409       .  A
C4922      C4923   1.399       .  A
C4922      H4927   1.084       .  S
C4923      C4924   1.410       .  A
C4923      O4928   1.367       .  S
C4924      C4925   1.423       .  A
C4925      C4926   1.426       .  A
C4925      H4929   1.081       .  S
C4926      O4930   1.371       .  S
O4928      H4932   0.993       .  S
O4930      H4931   0.990       .  S
C4933      C4934   1.414       .  A
C4933      C4938   1.410       .  A
C4934      C4935   1.405       .  A
C4934      H4939   1.084       .  S
C4935      C4936   1.407       .  A
C4935      O4940   1.375       .  S
C4936      C4937   1.417       .  A
C4937      C4938   1.416       .  A
C4937      H4941   1.083       .  S
C4938      O4942   1.373       .  S
O4940      H4944   0.990       .  S
O4942      H4943   0.990       .  S
C4945      C4946   1.404       .  A
C4945      C4950   1.420       .  A
C4946      C4947   1.421       .  A
C4946      H4951   1.084       .  S
C4947      C4948   1.418       .  A
C4947      O4952   1.379       .  S
C4948      C4949   1.408       .  A
C4949      C4950   1.420       .  A
C4949      H4953   1.083       .  S
C4950      O4954   1.372       .  S
O4952      H4956   0.991       .  S
O4954      H4955   0.991       .  S
C4957      C4958   1.418       .  A
C4957      C4962   1.414       .  A
C4958      C4959   1.396       .  A
C4958      H4963   1.078       .  S
C4959      C4960   1.404       .  A
C4959      O4964   1.369       .  S
C4960      C4961   1.416       .  A
C4961      C4962   1.422       .  A
C4961      H4965   1.080       .  S
C4962      O4966   1.370       .  S
O4964      H4968   0.991       .  S
O4966      H4967   0.991       .  S
C4969      C4970   1.406       .  A
C4969      C4974   1.408       .  A
C4970      C4971   1.418       .  A
C4970      H4975   1.075       .  S
C4971      C4972   1.415       .  A
C4971      O4976   1.370       .  S
C4972      C4973   1.402       .  A
C4973      C4974   1.398       .  A
C4973      H4977   1.080       .  S
C4974      O4978   1.381       .  S
O4976      H4980   0.991       .  S
O4978      H4979   0.990       .  S
C4981      C4982   1.410       .  A
C4981      C4986   1.406       .  A
C4982      C4983   1.416       .  A
C4982      H4987   1.083       .  S
C4983      C4984   1.411       .  A
C4983      O4988   1.370       .  S
C4984      C4985   1.407       .  A
C4985      C4986   1.395       .  A
C4985      H4989   1.082       .  S
C4986      O4990   1.372       .  S
O4988      H4992   0.991       .  S
O4990      H4991   0.991       .  S
C4993      C4994   1.418       .  A
C4993      C4998   1.420       .  A
C4994      C4995   1.390       .  A
C4994      H4999   1.077       .  S
C4995      C4996   1.400       .  A
C4995      O5000   1.376       .  S
C4996      C4997   1.415       .  A
C4997      C4998   1.427       .  A
C4997      H5001   1.082       .  S
C4998      O5002   1.369       .  S
O5000      H5004   0.991       .  S
O5002      H5003   0.992       .  S
C5005      C5006   1.406       .  A
C5005      C5010   1.411       .  A
C5006      C5007   1.407       .  A
C5006      H5011   1.072       .  S
C5007      C5008   1.410       .  A
C5007      O5012   1.371       .  S
C5008      C5009   1.406       .  A
C5009      C5010   1.410       .  A
C5009      H5013   1.080       .  S
C5010      O5014   1.370       .  S
O5012      H5016   0.991       .  S
O5014      H5015   0.991       .  S
C5017      C5018   1.401       .  A
C5017      C5022   1.416       .  A
C5018      C5019   1.420       .  A
C5018      H5023   1.082       .  S
C5019      C5020   1.419       .  A
C5019      O5024   1.379       .  S
C5020      C5021   1.406       .  A
C5021      C5022   1.416       .  A
C5021      H5025   1.083       .  S
C5022      O5026   1.371       .  S
O5024      H5028   0.992       .  S
O5026      H5027   0.992       .  S
C5029      C5030   1.418       .  A
C5029      C5034   1.416       .  A
C5030      C5031   1.399       .  A
C5030      H5035   1.073       .  S
C5031      C5032   1.399       .  A
C5031      O5036   1.375       .  S
C5032      C5033   1.416       .  A
C5033      C5034   1.425       .  A
C5033      H5037   1.081       .  S
C5034      O5038   1.370       .  S
O5036      H5040   0.991       .  S
O5038      H5039   0.991       .  S
C5041      C5042   1.415       .  A
C5041      C5046   1.434       .  A
C5042      C5043   1.418       .  A
C5042      H5047   1.081       .  S
C5043      C5044   1.413       .  A
C5043      O5048   1.370       .  S
C5044      C5045   1.394       .  A
C5045      C5046   1.391       .  A
C5045      H5049   1.085       .  S
C5046      O5050   1.373       .  S
O5048      H5052   0.991       .  S
O5050      H5051   0.991       .  S
C5053      C5054   1.406       .  A
C5053      C5058   1.410       .  A
C5054      C5055   1.402       .  A
C5054      H5059   1.084       .  S
C5055      C5056   1.408       .  A
C5055      O5060   1.374       .  S
C5056      C5057   1.407       .  A
C5057      C5058   1.408       .  A
C5057      H5061   1.083       .  S
C5058      O5062   1.371       .  S
O5060      H5064   0.987       .  S
O5062      H5063   0.992       .  S
C5065      C5066   1.388       .  A
C5065      C5070   1.416       .  A
C5066      C5067   1.392       .  A
C5066      H5071   1.084       .  S
C5067      C5068   1.423       .  A
C5067      O5072   1.369       .  S
C5068      C5069   1.388       .  A
C5069      C5070   1.392       .  A
C5069      H5073   1.084       .  S
C5070      O5074   1.366       .  S
O5072      H5076   0.992       .  S
O5074      H5075   0.991       .  S
C5077      C5078   1.403       .  A
C5077      C5082   1.408       .  A
C5078      C5079   1.391       .  A
C5078      H5083   1.084       .  S
C5079      C5080   1.406       .  A
C5079      O5084   1.372       .  S
C5080      C5081   1.402       .  A
C5081      C5082   1.393       .  A
C5081      H5085   1.084       .  S
C5082      O5086   1.372       .  S
O5084      H5088   0.991       .  S
O5086      H5087   0.991       .  S
C5089      C5090   1.404       .  A
C5089      C5094   1.401       .  A
C5090      C5091   1.397       .  A
C5090      H5095   1.083       .  S
C5091      C5092   1.411       .  A
C5091      O5096   1.374       .  S
C5092      C5093   1.419       .  A
C5093      C5094   1.394       .  A
C5093      H5097   1.081       .  S
C5094      O5098   1.371       .  S
O5096      H5100   0.992       .  S
O5098      H5099   0.991       .  S
C5101      C5102   1.408       .  A
C5101      C5106   1.404       .  A
C5102      C5103   1.402       .  A
C5102      H5107   1.079       .  S
C5103      C5104   1.412       .  A
C5103      O5108   1.368       .  S
C5104      C5105   1.400       .  A
C5105      C5106   1.398       .  A
C5105      H5109   1.077       .  S
C5106      O5110   1.355       .  S
O5108      H5112   0.991       .  S
O5110      H5111   0.978       .  S
C5113      C5114   1.398       .  A
C5113      C5118   1.394       .  A
C5114      C5115   1.392       .  A
C5114      H5119   1.083       .  S
C5115      C5116   1.423       .  A
C5115      O5120   1.370       .  S
C5116      C5117   1.402       .  A
C5117      C5118   1.393       .  A
C5117      H5121   1.079       .  S
C5118      O5122   1.372       .  S
O5120      H5124   0.992       .  S
O5122      H5123   0.989       .  S
C5125      C5126   1.400       .  A
C5125      C5130   1.395       .  A
C5126      C5127   1.400       .  A
C5126      H5131   1.079       .  S
C5127      C5128   1.412       .  A
C5127      O5132   1.373       .  S
C5128      C5129   1.413       .  A
C5129      C5130   1.388       .  A
C5129      H5133   1.078       .  S
C5130      O5134   1.373       .  S
O5132      H5136   0.992       .  S
O5134      H5135   0.992       .  S
C5137      C5138   1.408   1_455  A
C5137      C5142   1.411       .  A
C5138      C5139   1.397       .  A
C5138      H5143   1.079       .  S
C5139      C5140   1.404       .  A
C5139      O5144   1.373       .  S
C5140      C5141   1.408       .  A
C5141      C5142   1.415   1_655  A
C5141      H5145   1.082       .  S
C5142      O5146   1.370       .  S
O5144      H5148   0.991       .  S
O5146      H5147   0.991       .  S
C5149      C5150   1.392   1_455  A
C5149      C5154   1.417       .  A
C5150      C5151   1.392       .  A
C5150      H5155   1.071       .  S
C5151      C5152   1.421       .  A
C5151      O5156   1.376       .  S
C5152      C5153   1.413       .  A
C5153      C5154   1.419   1_655  A
C5153      H5157   1.081       .  S
C5154      O5158   1.370       .  S
O5156      H5160   0.993       .  S
O5158      H5159   0.991       .  S
C5161      C5162   1.408       .  A
C5161      C5166   1.412   1_565  A
C5162      C5163   1.409       .  A
C5162      H5167   1.076       .  S
C5163      C5164   1.412       .  A
C5163      O5168   1.371       .  S
C5164      C5165   1.408       .  A
C5165      C5166   1.410   1_565  A
C5165      H5169   1.083       .  S
C5166      O5170   1.370       .  S
O5168      H5172   0.991       .  S
O5170      H5171   0.991       .  S
C5173      C5174   1.410       .  A
C5173      C5178   1.412       .  A
C5174      C5175   1.400       .  A
C5174      H5179   1.080       .  S
C5175      C5176   1.407       .  A
C5175      O5180   1.373       .  S
C5176      C5177   1.412       .  A
C5177      C5178   1.418       .  A
C5177      H5181   1.083   1_565  S
C5178      O5182   1.371       .  S
O5180      H5184   0.990       .  S
O5182      H5183   0.989       .  S
C5185      C5186   1.407       .  A
C5185      C5190   1.397       .  A
C5186      C5187   1.418       .  A
C5186      H5191   1.082       .  S
C5187      C5188   1.422       .  A
C5187      O5192   1.369       .  S
C5188      C5189   1.421       .  A
C5189      C5190   1.385       .  A
C5189      H5193   1.076   1_545  S
C5190      O5194   1.375       .  S
O5192      H5196   0.991       .  S
O5194      H5195   0.989   1_545  S
C5197      C5198   1.396       .  A
C5197      C5202   1.415       .  A
C5198      C5199   1.387       .  A
C5198      H5203   1.079       .  S
C5199      C5200   1.415       .  A
C5199      O5204   1.373       .  S
C5200      C5201   1.410       .  A
C5201      C5202   1.422       .  A
C5201      H5205   1.082       .  S
C5202      O5206   1.370       .  S
O5204      H5208   0.991   1_455  S
O5206      H5207   0.991       .  S
C5209      C5210   1.411       .  A
C5209      C5214   1.408       .  A
C5210      C5211   1.412       .  A
C5210      H5215   1.081   1_556  S
C5211      C5212   1.409       .  A
C5211      O5216   1.369       .  S
C5212      C5213   1.407       .  A
C5213      C5214   1.409       .  A
C5213      H5217   1.075       .  S
C5214      O5218   1.376       .  S
O5216      H5220   0.991       .  S
O5218      H5219   0.991       .  S
C5221      C5222   1.409       .  A
C5221      C5226   1.414       .  A
C5222      C5223   1.405       .  A
C5222      H5227   1.082   1_455  S
C5223      C5224   1.409       .  A
C5223      O5228   1.371   1_455  S
C5224      C5225   1.409       .  A
C5225      C5226   1.412       .  A
C5225      H5229   1.083       .  S
C5226      O5230   1.369   1_556  S
O5228      H5232   0.991       .  S
O5230      H5231   0.991       .  S
C5233      C5234   1.409       .  A
C5233      C5238   1.417       .  A
C5234      C5235   1.416       .  A
C5234      H5239   1.083       .  S
C5235      C5236   1.415       .  A
C5235      O5240   1.370   1_655  S
C5236      C5237   1.408       .  A
C5237      C5238   1.412       .  A
C5237      H5241   1.082       .  S
C5238      O5242   1.371       .  S
O5240      H5244   0.991       .  S
O5242      H5243   0.991   1_554  S
C5245      C5246   1.402   1_655  A
C5245      C5250   1.409       .  A
C5246      C5247   1.402   1_455  A
C5246      H5251   1.084       .  S
C5247      C5248   1.411       .  A
C5247      O5252   1.374   1_655  S
C5248      C5249   1.409       .  A
C5249      C5250   1.413       .  A
C5249      H5253   1.084       .  S
C5250      O5254   1.375       .  S
O5252      H5256   0.991       .  S
O5254      H5255   0.990       .  S
C5257      C5258   1.404       .  A
C5257      C5262   1.412       .  A
C5258      C5259   1.408       .  A
C5258      H5263   1.083       .  S
C5259      C5260   1.418       .  A
C5259      O5264   1.372   1_554  S
C5260      C5261   1.408       .  A
C5261      C5262   1.412       .  A
C5261      H5265   1.083       .  S
C5262      O5266   1.370       .  S
O5264      H5268   0.991   1_556  S
O5266      H5267   0.991       .  S
C5269      C5270   1.403       .  A
C5269      C5274   1.409       .  A
C5270      C5271   1.405       .  A
C5270      H5275   1.084       .  S
C5271      C5272   1.413       .  A
C5271      O5276   1.374       .  S
C5272      C5273   1.409       .  A
C5273      C5274   1.414       .  A
C5273      H5277   1.083       .  S
C5274      O5278   1.375       .  S
O5276      H5280   0.991       .  S
O5278      H5279   0.990   1_455  S
