geometry optimzed in LAMMPS
_audit_creation_date              2020-11-30 
_audit_creation_method            'lammps2cif' 
_symmetry_space_group_name_H-M    'P1' 
_symmetry_Int_Tables_number       1 
_symmetry_cell_setting            triclinic 
loop_ 
_symmetry_equiv_pos_as_xyz 
  x,y,z 
_cell_length_a                    52.9246438 
_cell_length_b                    53.39558239419555 
_cell_length_c                    53.10243027872465 
_cell_angle_alpha                 89.86913703215541 
_cell_angle_beta                  90.3490215206432 
_cell_angle_gamma                 90.30029102606487 
loop_ 
_atom_site_label 
_atom_site_type_symbol 
_atom_site_fract_x 
_atom_site_fract_y 
_atom_site_fract_z 
_atom_site_charge 
O1          O  0.29019468  0.70580075  0.74299879    -0.79500
O2          O  0.28447323  0.79230765  0.73461147    -0.79600
O3          O  0.26232835  0.72665399  0.69655494    -0.79600
O4          O  0.27008120  0.76280437  0.80481055    -0.79500
O5          O  0.28335118  0.76253508  0.69165851    -0.79600
O6          O  0.29758758  0.73810585  0.78521350    -0.79600
O7          O  0.26219391  0.79838457  0.76915708    -0.79500
O8          O  0.25900379  0.70514407  0.71494943    -0.79600
C9          C  0.27875293  0.69471632  0.72523071     1.10200
C10         C  0.27734937  0.80636209  0.75257947     1.10000
C11         C  0.27706892  0.74104857  0.68313043     1.10200
C12         C  0.29205010  0.75324323  0.80288369     1.10100
O13         O  0.25277025  0.71843557  0.80526915    -0.79500
O14         O  0.23860770  0.76952316  0.70031954    -0.79600
O15         O  0.21587060  0.70491061  0.73690289    -0.79500
O16         O  0.21526685  0.77945063  0.75631206    -0.79500
O17         O  0.23966837  0.78461318  0.72215595    -0.79600
O18         O  0.24398390  0.68929894  0.76415797    -0.79500
O19         O  0.22043958  0.74233991  0.79584401    -0.79500
O20         O  0.21617703  0.73471275  0.69387736    -0.79600
Co21       Co  0.27076773  0.71474016  0.77290354     1.51500
Co22       Co  0.26910110  0.75898027  0.72459156     1.51700
Co23       Co  0.23532639  0.73473860  0.72469405     1.51600
Co24       Co  0.24210214  0.76900255  0.78003138     1.51500
O25         O  0.25463482  0.74401011  0.75503370    -1.41500
C26         C  0.23086829  0.72616916  0.81018515     1.10100
C27         C  0.22262141  0.75652344  0.68649146     1.10200
C28         C  0.22333168  0.68772299  0.75182305     1.10100
C29         C  0.22124275  0.79192481  0.73669757     1.10100
O30         O  0.72070382  0.22814266  0.71138511    -0.79500
O31         O  0.74914843  0.22393030  0.78366567    -0.79600
O32         O  0.80003386  0.25555501  0.72536323    -0.79600
O33         O  0.68390497  0.26640539  0.77895458    -0.79500
O34         O  0.79474461  0.23101144  0.75735900    -0.79600
O35         O  0.68952077  0.23603523  0.75224726    -0.79600
O36         O  0.72495211  0.25051806  0.80438513    -0.79500
O37         O  0.76142324  0.22911620  0.71981858    -0.79600
C38         C  0.74253244  0.21865370  0.70966102     1.10200
C39         C  0.73473040  0.22885982  0.80178075     1.10000
C40         C  0.80903365  0.23902200  0.74004538     1.10200
C41         C  0.67627898  0.24624336  0.76898858     1.10100
O42         O  0.68479708  0.28805345  0.73728941    -0.79500
O43         O  0.78965349  0.28294459  0.76493632    -0.79600
O44         O  0.75478918  0.26935899  0.68915033    -0.79500
O45         O  0.75022812  0.29805461  0.79476121    -0.79500
O46         O  0.77193432  0.26411869  0.80280047    -0.79600
O47         O  0.71685701  0.28098995  0.69916879    -0.79500
O48         O  0.70757151  0.31139027  0.76349124    -0.79500
O49         O  0.77640920  0.29949716  0.72960649    -0.79600
Co50       Co  0.70550891  0.25828902  0.72698558     1.51500
Co51       Co  0.76616690  0.25253295  0.76844671     1.51700
Co52       Co  0.76322175  0.26575504  0.72409560     1.51600
Co53       Co  0.71867154  0.28100749  0.78252619     1.51500
O54         O  0.73571901  0.26599557  0.75035646    -1.41500
C55         C  0.68837412  0.30848817  0.74913655     1.10100
C56         C  0.79058170  0.30065662  0.74865985     1.10200
C57         C  0.73360869  0.27734788  0.68275349     1.10100
C58         C  0.76529779  0.28587807  0.80897163     1.10100
O59         O  0.72002384  0.73288741  0.21706957    -0.79500
O60         O  0.79548211  0.75164861  0.21349867    -0.79600
O61         O  0.74572671  0.78730712  0.23450139    -0.79600
O62         O  0.79106288  0.68627552  0.24476242    -0.79500
O63         O  0.78506523  0.80035913  0.22970647    -0.79600
O64         O  0.76253484  0.69579228  0.21579140    -0.79600
O65         O  0.81904268  0.72810209  0.23890148    -0.79500
O66         O  0.70921780  0.75698397  0.24835162    -0.79600
C67         C  0.70431183  0.74843649  0.22677569     1.10200
C68         C  0.81548142  0.73883755  0.21767377     1.10000
C69         C  0.76173004  0.80379228  0.22594511     1.10200
C70         C  0.77973372  0.68114062  0.22424858     1.10100
O71         O  0.74961574  0.68234764  0.26593952    -0.79500
O72         O  0.76994617  0.78803707  0.27681519    -0.79600
O73         O  0.73063691  0.74016279  0.29413558    -0.79500
O74         O  0.80646240  0.74436854  0.28964594    -0.79500
O75         O  0.81417674  0.77033663  0.25905528    -0.79600
O76         O  0.71180146  0.71499842  0.26717749    -0.79500
O77         O  0.77489717  0.70126372  0.29354204    -0.79500
O78         O  0.72823096  0.78992168  0.28181011    -0.79600
Co79       Co  0.73811402  0.70875741  0.24129421     1.51500
Co80       Co  0.77969465  0.76800158  0.24354528     1.51700
Co81       Co  0.74206491  0.76204794  0.26555239     1.51600
Co82       Co  0.79562339  0.71658797  0.26653002     1.51500
O83         O  0.76443671  0.73495675  0.25325005    -1.41500
C84         C  0.76132553  0.68266356  0.28706544     1.10100
C85         C  0.75009378  0.79844257  0.28653347     1.10200
C86         C  0.71289661  0.72467971  0.28889313     1.10100
C87         C  0.82020181  0.76160004  0.28034428     1.10100
C88         C  0.53193541  0.99872512  0.99654484     0.02900
C89         C  0.51235936  0.98036296  0.99776488     0.02900
C90         C  0.49071989  0.98252650  0.98195986     0.02900
C91         C  0.48962108  0.00128234  0.96303465     0.02900
C92         C  0.50850596  0.02034615  0.96253240     0.02900
C93         C  0.52981210  0.01896840  0.97912421     0.02900
C94         C  0.68625815  0.96804559  0.16442885     0.80800
N95         N  0.69043818  0.98766092  0.18047171    -0.77500
C96         C  0.67897893  0.01016846  0.17659470     0.83300
N97         N  0.66308028  0.01300586  0.15668111    -0.77400
C98         C  0.65900189  0.99404900  0.14023321     0.83400
N99         N  0.67051263  0.97164642  0.14437069    -0.79100
C100        C  0.68928152  0.18370456  0.97446434     0.80800
N101        N  0.67109339  0.16571353  0.97364788    -0.77500
C102        C  0.65743329  0.15999150  0.99436759     0.83300
N103        N  0.66213139  0.17234340  0.01619221    -0.77400
C104        C  0.67974476  0.19095881  0.01740387     0.83400
N105        N  0.69348770  0.19657020  0.99634364    -0.79100
C106        C  0.31401366  0.98164084  0.81546628     0.80800
N107        N  0.33274686  0.98292095  0.83316223    -0.77500
C108        C  0.33763145  0.00446980  0.84587348     0.83300
N109        N  0.32393453  0.02526592  0.84061448    -0.77400
C110        C  0.30496185  0.02440150  0.82326687     0.83400
N111        N  0.30000375  0.00257607  0.81082237    -0.79100
C112        C  0.50405476  0.20256299  0.83760650     0.80800
N113        N  0.48408527  0.21820934  0.83380450    -0.77500
C114        C  0.46203276  0.21518737  0.84669441     0.83300
N115        N  0.46028466  0.19616329  0.86384421    -0.77400
C116        C  0.48009602  0.18060265  0.86801156     0.83400
N117        N  0.50170417  0.18420734  0.85496476    -0.79100
C118        C  0.49567314  0.83345973  0.17300994     0.80800
N119        N  0.51713402  0.81985176  0.17808770    -0.77500
C120        C  0.53878437  0.82362419  0.16419620     0.83300
N121        N  0.53810605  0.84081712  0.14522512    -0.77400
C122        C  0.51688723  0.85406212  0.14001704     0.83400
N123        N  0.49589132  0.85000679  0.15369266    -0.79100
C124        C  0.32180565  0.83428680  0.96318625     0.80800
N125        N  0.33673158  0.85501403  0.96285599    -0.77500
C126        C  0.33800877  0.87040026  0.98306529     0.83300
N127        N  0.32472888  0.86437900  0.00398781    -0.77400
C128        C  0.30992917  0.84354965  0.00493685     0.83400
N129        N  0.30863982  0.82829965  0.98440020    -0.79100
C130        C  0.96806909  0.49209704  0.99123481     0.02900
C131        C  0.98642240  0.49498035  0.97191669     0.02900
C132        C  0.00615700  0.51277090  0.97504290     0.02900
C133        C  0.00541204  0.53043851  0.99479146     0.02900
C134        C  0.98628426  0.52871688  0.01335718     0.02900
C135        C  0.96800768  0.50898954  0.01211025     0.02900
C136        C  0.18253390  0.67529870  0.98704106     0.80800
N137        N  0.16052451  0.66239921  0.98907443    -0.77500
C138        C  0.15440082  0.64950080  0.01003852     0.83300
N139        N  0.17074144  0.64968226  0.02973678    -0.77400
C140        C  0.19302100  0.66266923  0.02892610     0.83400
N141        N  0.19905625  0.67536608  0.00712294    -0.79100
C142        C  0.17291435  0.51951774  0.81811280     0.80800
N143        N  0.15518790  0.52301529  0.83608774    -0.77500
C144        C  0.14728416  0.50355751  0.85036738     0.83300
N145        N  0.15689404  0.48054613  0.84663698    -0.77400
C146        C  0.17399616  0.47614691  0.82839087     0.83400
N147        N  0.18233099  0.49596563  0.81407384    -0.79100
C148        C  0.98848081  0.68347947  0.17694405     0.80800
N149        N  0.98849146  0.66500337  0.15949580    -0.77500
C150        C  0.00978129  0.65201166  0.15459153     0.83300
N151        N  0.03158160  0.65783869  0.16683583    -0.77400
C152        C  0.03215236  0.67647241  0.18424531     0.83400
N153        N  0.01042299  0.68925366  0.18951395    -0.79100
C154        C  0.82949191  0.45849743  0.19153682     0.80800
N155        N  0.84785897  0.45916297  0.17371581    -0.77500
C156        C  0.85271636  0.48022891  0.16034324     0.83300
N157        N  0.83924564  0.50109793  0.16547326    -0.77400
C158        C  0.82096849  0.50143408  0.18333636     0.83400
N159        N  0.81597749  0.47979675  0.19640876    -0.79100
C160        C  0.00516364  0.33815175  0.80510514     0.80800
N161        N  0.00637807  0.35649933  0.82278400    -0.77500
C162        C  0.98645263  0.37172356  0.82704062     0.83300
N163        N  0.96496831  0.36839092  0.81341940    -0.77400
C164        C  0.96327133  0.35070526  0.79517882     0.83400
N165        N  0.98349153  0.33535799  0.79111839    -0.79100
C166        C  0.83839339  0.30523994  0.02681756     0.80800
N167        N  0.85713485  0.32285414  0.02683931    -0.77500
C168        C  0.86567829  0.33307886  0.00514864     0.83300
N169        N  0.85499754  0.32615032  0.98311469    -0.77400
C170        C  0.83622782  0.30879759  0.98228457     0.83400
N171        N  0.82766072  0.29845479  0.00425728    -0.79100
C172        C  0.51657580  0.46759577  0.49602433     0.02900
C173        C  0.49700890  0.46639511  0.51421020     0.02900
C174        C  0.47985993  0.48665581  0.51651898     0.02900
C175        C  0.48238151  0.50791199  0.50055152     0.02900
C176        C  0.50127748  0.50857144  0.48184162     0.02900
C177        C  0.51889897  0.48890218  0.48024588     0.02900
C178        C  0.47595194  0.30650023  0.67743589     0.80800
N179        N  0.49723739  0.30731952  0.69227157    -0.77500
C180        C  0.51816939  0.32013621  0.68421536     0.83300
N181        N  0.51761124  0.33176314  0.66152877    -0.77400
C182        C  0.49676328  0.33100163  0.64669976     0.83400
N183        N  0.47583284  0.31867481  0.65489098    -0.79100
C184        C  0.32155868  0.66586550  0.46928731     0.80800
N185        N  0.31246041  0.67568196  0.49108274    -0.77500
C186        C  0.32386617  0.67057149  0.51359329     0.83300
N187        N  0.34464543  0.65579498  0.51413864    -0.77400
C188        C  0.35401468  0.64591793  0.49263061     0.83400
N189        N  0.34225390  0.65090989  0.47050830    -0.79100
C190        C  0.69424125  0.47356340  0.33684278     0.80800
N191        N  0.67176491  0.47438933  0.34891653    -0.77500
C192        C  0.66179817  0.49638264  0.35651355     0.83300
N193        N  0.67465025  0.51794937  0.35180788    -0.77400
C194        C  0.69694029  0.51763852  0.33933698     0.83400
N195        N  0.70680141  0.49536294  0.33184416    -0.79100
C196        C  0.49545813  0.68066108  0.33133791     0.80800
N197        N  0.49413283  0.66187308  0.34860472    -0.77500
C198        C  0.51437690  0.65592690  0.36308026     0.83300
N199        N  0.53632683  0.66879066  0.36026564    -0.77400
C200        C  0.53808456  0.68810361  0.34365516     0.83400
N201        N  0.51753942  0.69382880  0.32900697    -0.79100
C202        C  0.29462862  0.47475844  0.65221875     0.80800
N203        N  0.29007533  0.49677739  0.66457917    -0.77500
C204        C  0.30363425  0.51794966  0.65875752     0.83300
N205        N  0.32191636  0.51643999  0.64091512    -0.77400
C206        C  0.32678541  0.49470215  0.62888429     0.83400
N207        N  0.31332538  0.47397369  0.63489829    -0.79100
C208        C  0.66681644  0.29919356  0.46699073     0.80800
N209        N  0.65053062  0.31869525  0.46776463    -0.77500
C210        C  0.64957382  0.33374531  0.48819767     0.83300
N211        N  0.66505514  0.32932224  0.50807711    -0.77400
C212        C  0.68206877  0.31041221  0.50731394     0.83400
N213        N  0.68275463  0.29521129  0.48678519    -0.79100
C214        C  0.98195396  0.95964488  0.50036164     0.02900
C215        C  0.00104589  0.95771886  0.51905021     0.02900
C216        C  0.00014824  0.97308720  0.54083747     0.02900
C217        C  0.97944692  0.98972170  0.54404466     0.02900
C218        C  0.95945827  0.99050266  0.52607823     0.02900
C219        C  0.96044069  0.97458154  0.50479365     0.02900
C220        C  0.97506796  0.16219992  0.69222303     0.80800
N221        N  0.97367680  0.13910003  0.68154197    -0.77500
C222        C  0.99337021  0.12980460  0.66834575     0.83300
N223        N  0.01434006  0.14397823  0.66528249    -0.77400
C224        C  0.01599998  0.16715218  0.67534295     0.83400
N225        N  0.99635644  0.17620211  0.68894368    -0.79100
C226        C  0.18384544  0.01344525  0.67846091     0.80800
N227        N  0.19073950  0.99145236  0.68990701    -0.77500
C228        C  0.17835389  0.96955442  0.68420650     0.83300
N229        N  0.15912801  0.97015379  0.66713483    -0.77400
C230        C  0.15215003  0.99176079  0.65573771     0.83400
N231        N  0.16436349  0.01341974  0.66158918    -0.79100
C232        C  0.18577189  0.82937768  0.51424454     0.80800
N233        N  0.16552194  0.84469410  0.51321834    -0.77500
C234        C  0.15673380  0.85413811  0.49114250     0.83300
N235        N  0.16830408  0.84728901  0.46945015    -0.77400
C236        C  0.18826246  0.83123408  0.46988620     0.83400
N237        N  0.19709052  0.82236742  0.49239033    -0.79100
C238        C  0.79971260  0.15611574  0.54388402     0.80800
N239        N  0.81785462  0.13825449  0.54526683    -0.77500
C240        C  0.83033768  0.13074304  0.52442429     0.83300
N241        N  0.82423484  0.14109075  0.50183650    -0.77400
C242        C  0.80626959  0.15915638  0.49972109     0.83400
N243        N  0.79408958  0.16684471  0.52105915    -0.79100
C244        C  0.81025095  0.96772367  0.33330740     0.80800
N245        N  0.80886398  0.98884443  0.31886056    -0.77500
C246        C  0.82302537  0.00935015  0.32517384     0.83300
N247        N  0.83779003  0.00880335  0.34609558    -0.77400
C248        C  0.83880673  0.98800505  0.36061359     0.83400
N249        N  0.82520937  0.96754715  0.35405096    -0.79100
C250        C  0.99725587  0.81528295  0.33126840     0.80800
N251        N  0.99688173  0.83349636  0.34902171    -0.77500
C252        C  0.01795645  0.84667862  0.35508490     0.83300
N253        N  0.03971865  0.84215934  0.34269133    -0.77400
C254        C  0.04078445  0.82440496  0.32437673     0.83400
N255        N  0.01930664  0.81104160  0.31855661    -0.79100
O256        O  0.25150474  0.20762215  0.71409493    -0.79500
O257        O  0.24157501  0.28236827  0.70123675    -0.79600
O258        O  0.18332052  0.22383470  0.72879100    -0.79600
O259        O  0.28858412  0.25691807  0.72908625    -0.79500
O260        O  0.20300166  0.24514651  0.69904351    -0.79600
O261        O  0.29847115  0.21695990  0.73580338    -0.79600
O262        O  0.26191355  0.29920737  0.73279040    -0.79500
O263        O  0.22103972  0.19210848  0.73793392    -0.79600
C264        C  0.23590391  0.19003277  0.71930577     1.10200
C265        C  0.25579722  0.29971314  0.70980863     1.10000
C266        C  0.18547514  0.23048853  0.70591872     1.10200
C267        C  0.30427958  0.23836575  0.72698619     1.10100
O268        O  0.28296627  0.24300713  0.77603762    -0.79500
O269        O  0.17933189  0.26840353  0.74214063    -0.79600
O270        O  0.22889367  0.21307040  0.78766457    -0.79500
O271        O  0.23735874  0.28782679  0.77836989    -0.79500
O272        O  0.21688722  0.30168920  0.74510003    -0.79600
O273        O  0.25985802  0.19772695  0.76560640    -0.79500
O274        O  0.28930830  0.28376068  0.77214107    -0.79500
O275        O  0.18957803  0.24775106  0.77682111    -0.79600
Co276      Co  0.26521737  0.22782073  0.74312448     1.51500
Co277      Co  0.21206845  0.27225016  0.72266467     1.51700
Co278      Co  0.20759643  0.22133852  0.75766135     1.51600
Co279      Co  0.26115957  0.26950307  0.75547024     1.51500
O280        O  0.23265913  0.24744748  0.74405699    -1.41500
C281        C  0.29576659  0.26311649  0.78190621     1.10100
C282        C  0.17460660  0.26203404  0.76479516     1.10200
C283        C  0.24498584  0.19590607  0.78420703     1.10100
C284        C  0.22318939  0.30428501  0.76796482     1.10100
O285        O  0.76828429  0.18319787  0.27623537    -0.79500
O286        O  0.77516766  0.28181643  0.23495269    -0.79600
O287        O  0.77841756  0.22697441  0.20604292    -0.79600
O288        O  0.78507158  0.23169252  0.30495943    -0.79500
O289        O  0.76658677  0.26647148  0.21282402    -0.79600
O290        O  0.75079501  0.20964896  0.31225463    -0.79600
O291        O  0.79722286  0.27069059  0.26887374    -0.79500
O292        O  0.78762423  0.19073977  0.24104809    -0.79600
C293        C  0.78606009  0.17865498  0.26124102     1.10200
C294        C  0.79465002  0.28449861  0.24940834     1.10000
C295        C  0.77810995  0.24976900  0.19957106     1.10200
C296        C  0.77254595  0.21709339  0.31930909     1.10100
O297        O  0.71018285  0.22984031  0.28232333    -0.79500
O298        O  0.72879491  0.25687745  0.20621735    -0.79600
O299        O  0.73237739  0.17946736  0.24439507    -0.79500
O300        O  0.74786540  0.29091278  0.27466569    -0.79500
O301        O  0.72796357  0.29654206  0.23844850    -0.79600
O302        O  0.71859776  0.17912072  0.28404235    -0.79500
O303        O  0.73484777  0.25299729  0.30662043    -0.79500
O304        O  0.72460329  0.21735332  0.21263234    -0.79600
Co305      Co  0.73906491  0.20739457  0.27628186     1.51500
Co306      Co  0.74146679  0.26340288  0.24185052     1.51700
Co307      Co  0.75655336  0.20628388  0.22836014     1.51600
Co308      Co  0.76631515  0.25873971  0.28634425     1.51500
O309        O  0.75722736  0.23350202  0.25703972    -1.41500
C310        C  0.71310082  0.24427157  0.30105814     1.10100
C311        C  0.72289289  0.23545411  0.19778524     1.10200
C312        C  0.71886268  0.16950301  0.26216620     1.10100
C313        C  0.73493730  0.30514128  0.25969928     1.10100
O314        O  0.31183299  0.72164733  0.24143369    -0.79500
O315        O  0.21762954  0.71844585  0.27233467    -0.79600
O316        O  0.29192866  0.74772002  0.29276077    -0.79600
O317        O  0.24080820  0.73503419  0.19343161    -0.79500
O318        O  0.27131209  0.71572621  0.27603329    -0.79600
O319        O  0.26994797  0.71073963  0.20943214    -0.79600
O320        O  0.21110530  0.73692222  0.23460893    -0.79500
O321        O  0.32631044  0.75619516  0.25753901    -0.79600
C322        C  0.32964125  0.73336347  0.25226791     1.10200
C323        C  0.20395854  0.72150064  0.25254156     1.10000
C324        C  0.28523801  0.72484802  0.29363091     1.10200
C325        C  0.25135163  0.71392504  0.19445674     1.10100
O326        O  0.28069482  0.75629452  0.18272571    -0.79500
O327        O  0.24731679  0.75855971  0.29600230    -0.79600
O328        O  0.30215325  0.79931429  0.23947429    -0.79500
O329        O  0.22599380  0.79302199  0.23664419    -0.79500
O330        O  0.21827664  0.76694980  0.26618275    -0.79600
O331        O  0.31781315  0.76960281  0.21463072    -0.79500
O332        O  0.25618065  0.78647323  0.19511742    -0.79500
O333        O  0.26593173  0.79294286  0.28186927    -0.79600
Co334      Co  0.29305917  0.74025106  0.21458986     1.51500
Co335      Co  0.24527604  0.73966076  0.26355573     1.51700
Co336      Co  0.29399212  0.77380248  0.26564135     1.51600
Co337      Co  0.23663594  0.76322241  0.21736686     1.51500
O338        O  0.26893571  0.75686322  0.24036075    -1.41500
C339        C  0.26934258  0.77651615  0.17796503     1.10100
C340        C  0.25420573  0.78128636  0.29943158     1.10200
C341        C  0.31813601  0.79216210  0.22294025     1.10100
C342        C  0.21347470  0.78749057  0.25572054     1.10100
C343        C  0.14897081  0.81920207  0.25845431    -0.11300
C344        C  0.14263734  0.81484233  0.28376467     0.11300
C345        C  0.16157565  0.80607843  0.30051854    -0.03100
C346        C  0.18558517  0.80010223  0.29090843    -0.05800
C347        C  0.19137255  0.80225324  0.26512481    -0.16600
C348        C  0.17311613  0.81325217  0.24881502     0.02300
C349        C  0.11572615  0.81794535  0.29192762     0.12300
C350        C  0.15598170  0.80119722  0.32811661     0.62900
H351        H  0.19946556  0.79170533  0.30329316     0.12300
C352        C  0.17847044  0.81742960  0.22110252     0.55000
H353        H  0.13434513  0.82615403  0.24597347     0.08100
C354        C  0.10562764  0.84151524  0.29836814    -0.05700
C355        C  0.08084640  0.84263315  0.30794215    -0.06400
C356        C  0.06545996  0.82113567  0.31083946    -0.16000
C357        C  0.07512617  0.79767722  0.30284347    -0.01600
C358        C  0.10017018  0.79657167  0.29367940    -0.09200
C359        C  0.12100343  0.86539838  0.29514420     0.65100
H360        H  0.07327033  0.86059643  0.31341076     0.10600
C361        C  0.05954518  0.77378503  0.30442040     0.63500
H362        H  0.10800510  0.77879294  0.28808539     0.07900
F363        F  0.15857844  0.82916972  0.20892019    -0.19500
F364        F  0.18251450  0.79470518  0.20938078    -0.15800
F365        F  0.19965772  0.83248261  0.21856091    -0.19300
F366        F  0.13979123  0.78092770  0.33029728    -0.22600
F367        F  0.14488001  0.82193840  0.33885225    -0.24100
F368        F  0.17778082  0.79597384  0.34160599    -0.18100
F369        F  0.03884694  0.77556189  0.28850948    -0.20600
F370        F  0.05148432  0.77000120  0.32887004    -0.21800
F371        F  0.07324532  0.75296966  0.29729107    -0.18900
F372        F  0.10822084  0.88620936  0.30378207    -0.19000
F373        F  0.12616446  0.86907718  0.26991828    -0.22900
F374        F  0.14351536  0.86370086  0.30835852    -0.24500
C375        C  0.84031596  0.06891690  0.29010124    -0.11300
C376        C  0.81807120  0.08271761  0.29307710     0.11300
C377        C  0.79642365  0.07099093  0.30350754    -0.03100
C378        C  0.79849874  0.04644136  0.31290532    -0.05800
C379        C  0.82106265  0.03311305  0.31112763    -0.16600
C380        C  0.84204200  0.04397313  0.29868799     0.02300
C381        C  0.81700257  0.10885925  0.28354912     0.12300
C382        C  0.77100475  0.08399733  0.30395872     0.62900
H383        H  0.78261671  0.03753286  0.32214746     0.12300
C384        C  0.86568493  0.02884952  0.29378728     0.55000
H385        H  0.85627512  0.07785109  0.28102626     0.08100
C386        C  0.81963407  0.12977871  0.29970365    -0.05700
C387        C  0.81158976  0.15336861  0.29092747    -0.06400
C388        C  0.80206675  0.15656205  0.26637485    -0.16000
C389        C  0.80244431  0.13605493  0.24935158    -0.01600
C390        C  0.81008148  0.11247048  0.25834216    -0.09200
C391        C  0.83061573  0.12703742  0.32606186     0.65100
H392        H  0.81137983  0.16924197  0.30359540     0.10600
C393        C  0.79275525  0.13838731  0.22244597     0.63500
H394        H  0.80884212  0.09617525  0.24627634     0.07900
F395        F  0.87764213  0.02308662  0.31625038    -0.19500
F396        F  0.88263420  0.04180284  0.27879940    -0.15800
F397        F  0.85915424  0.00687875  0.28153803    -0.19300
F398        F  0.76327599  0.08900438  0.27956013    -0.22600
F399        F  0.77249159  0.10623652  0.31710126    -0.24100
F400        F  0.75286898  0.06915953  0.31534658    -0.18100
F401        F  0.79492877  0.11613489  0.20931278    -0.20600
F402        F  0.80656922  0.15644075  0.20978398    -0.21800
F403        F  0.76752075  0.14496265  0.22244711    -0.18900
F404        F  0.83170235  0.14977197  0.33852252    -0.19000
F405        F  0.85488961  0.11775432  0.32447140    -0.22900
F406        F  0.81620367  0.11073601  0.34030563    -0.24500
C407        C  0.79678141  0.21754006  0.38774493    -0.11300
C408        C  0.79107582  0.19294606  0.39543356     0.11300
C409        C  0.78099323  0.17595434  0.37744451    -0.03100
C410        C  0.77668514  0.18430564  0.35250544    -0.05800
C411        C  0.78194559  0.20904071  0.34481415    -0.16600
C412        C  0.79247057  0.22592763  0.36274502     0.02300
C413        C  0.79539305  0.18564282  0.42253296     0.12300
C414        C  0.77423112  0.14921586  0.38470054     0.62900
H415        H  0.76847032  0.17160675  0.33880598     0.12300
C416        C  0.79813694  0.25297832  0.35589610     0.55000
H417        H  0.80431776  0.23030862  0.40174167     0.08100
C418        C  0.81951214  0.17875723  0.43181926    -0.05700
C419        C  0.82203996  0.17131811  0.45724335    -0.06400
C420        C  0.80139935  0.17025773  0.47394424    -0.16000
C421        C  0.77723208  0.17761400  0.46466825    -0.01600
C422        C  0.77482083  0.18547561  0.43920432    -0.09200
C423        C  0.84255893  0.17909794  0.41488039     0.65100
H424        H  0.84048851  0.16601029  0.46428556     0.10600
C425        C  0.75383917  0.17627620  0.48101167     0.63500
H426        H  0.75660318  0.19118170  0.43185589     0.07900
F427        F  0.80690085  0.26652672  0.37639035    -0.19500
F428        F  0.77642711  0.26441840  0.34704536    -0.15800
F429        F  0.81650188  0.25384378  0.33750045    -0.19300
F430        F  0.75521786  0.14930381  0.40241855    -0.22600
F431        F  0.79511702  0.13725998  0.39469337    -0.24100
F432        F  0.76583378  0.13546690  0.36419717    -0.18100
F433        F  0.73210299  0.18186757  0.46752374    -0.20600
F434        F  0.75593585  0.19328095  0.50051232    -0.21800
F435        F  0.75110100  0.15235838  0.49071966    -0.18900
F436        F  0.86392328  0.17040261  0.42720547    -0.19000
F437        F  0.84737655  0.20329465  0.40690459    -0.22900
F438        F  0.83840125  0.16407533  0.39409419    -0.24500
C439        C  0.19780926  0.80699614  0.40323635    -0.11300
C440        C  0.22305535  0.81354730  0.39881101     0.11300
C441        C  0.23718173  0.82548475  0.41813831    -0.03100
C442        C  0.22530651  0.83042181  0.44138929    -0.05800
C443        C  0.20004906  0.82345431  0.44586240    -0.16600
C444        C  0.18636098  0.81065684  0.42670428     0.02300
C445        C  0.23418708  0.80611255  0.37417649     0.12300
C446        C  0.26452187  0.83311391  0.41408341     0.62900
H447        H  0.23555181  0.84015129  0.45616226     0.12300
C448        C  0.16029847  0.79915007  0.43001814     0.55000
H449        H  0.18721778  0.79759513  0.38848634     0.08100
C450        C  0.24045360  0.78089108  0.36919613    -0.05700
C451        C  0.24798030  0.77440663  0.34481040    -0.06400
C452        C  0.24941590  0.79196589  0.32500208    -0.16000
C453        C  0.24486905  0.81755405  0.33039643    -0.01600
C454        C  0.23670792  0.82408628  0.35488854    -0.09200
C455        C  0.23920213  0.76068482  0.38944361     0.65100
H456        H  0.25255962  0.75506205  0.34094109     0.10600
C457        C  0.24853332  0.83778959  0.31067571     0.63500
H458        H  0.23183331  0.84327903  0.35911911     0.07900
F459        F  0.16123181  0.77399667  0.42389342    -0.19500
F460        F  0.14349582  0.81081108  0.41382288    -0.15800
F461        F  0.15133064  0.80078213  0.45432415    -0.19300
F462        F  0.26589976  0.85076179  0.39505801    -0.22600
F463        F  0.27864930  0.81248584  0.40742453    -0.24100
F464        F  0.27519072  0.84338834  0.43559279    -0.18100
F465        F  0.24248457  0.86125833  0.31980043    -0.20600
F466        F  0.23337844  0.83307393  0.28995115    -0.21800
F467        F  0.27355695  0.83834437  0.30333994    -0.18900
F468        F  0.24692064  0.73767081  0.38045974    -0.19000
F469        F  0.21476754  0.75782514  0.39798678    -0.22900
F470        F  0.25475284  0.76710977  0.40942264    -0.24500
C471        C  0.22715789  0.07119057  0.67631054    -0.11300
C472        C  0.21441903  0.08778012  0.69230747     0.11300
C473        C  0.19204907  0.07921895  0.70448907    -0.03100
C474        C  0.18385620  0.05427315  0.70082222    -0.05800
C475        C  0.19640634  0.03782707  0.68465553    -0.16600
C476        C  0.21836626  0.04643444  0.67206956     0.02300
C477        C  0.22518064  0.11362782  0.69626264     0.12300
C478        C  0.17577476  0.09548027  0.72123747     0.62900
H479        H  0.16675349  0.04781329  0.70998675     0.12300
C480        C  0.23233155  0.02945707  0.65415185     0.55000
H481        H  0.24410767  0.07786020  0.66708913     0.08100
C482        C  0.24028171  0.11960307  0.71749872    -0.05700
C483        C  0.24541453  0.14502826  0.72295851    -0.06400
C484        C  0.23697860  0.16466618  0.70731721    -0.16000
C485        C  0.22531710  0.15827309  0.68398837    -0.01600
C486        C  0.21927320  0.13284260  0.67907375    -0.09200
C487        C  0.25081792  0.09916354  0.73433428     0.65100
H488        H  0.25497521  0.14986600  0.74039348     0.10600
C489        C  0.21938452  0.17707083  0.66344609     0.63500
H490        H  0.20907169  0.12802867  0.66198016     0.07900
F491        F  0.25257721  0.04152805  0.64295495    -0.19500
F492        F  0.21615782  0.02130185  0.63530047    -0.15800
F493        F  0.24144649  0.00903732  0.66727377    -0.19300
F494        F  0.18209090  0.12053648  0.72009314    -0.22600
F495        F  0.17805758  0.08743854  0.74591580    -0.24100
F496        F  0.15073044  0.09326973  0.71389931    -0.18100
F497        F  0.23421134  0.17189758  0.64276762    -0.20600
F498        F  0.22403680  0.20148798  0.67064979    -0.21800
F499        F  0.19432654  0.17489862  0.65629481    -0.18900
F500        F  0.23143226  0.08648818  0.74622221    -0.19000
F501        F  0.26683329  0.10888012  0.75250916    -0.22900
F502        F  0.26447897  0.08243683  0.72004817    -0.24500
C503        C  0.07824190  0.19276697  0.65054833    -0.11300
C504        C  0.08906411  0.20138367  0.67301985     0.11300
C505        C  0.07442002  0.20218580  0.69526008    -0.03100
C506        C  0.04979891  0.19239703  0.69468058    -0.05800
C507        C  0.03976956  0.18150091  0.67283314    -0.16600
C508        C  0.05365409  0.18265731  0.65000494     0.02300
C509        C  0.11634967  0.20751459  0.67362137     0.12300
C510        C  0.08535044  0.21176704  0.71992330     0.62900
H511        H  0.03884397  0.19157043  0.71182521     0.12300
C512        C  0.04289326  0.17318898  0.62518086     0.55000
H513        H  0.08970782  0.19279482  0.63371693     0.08100
C514        C  0.13423561  0.18925510  0.68071955    -0.05700
C515        C  0.15800659  0.19735816  0.68927575    -0.06400
C516        C  0.16495376  0.22274235  0.68868639    -0.16000
C517        C  0.14848376  0.24039493  0.67726799    -0.01600
C518        C  0.12401973  0.23244030  0.67026551    -0.09200
C519        C  0.12788426  0.16150261  0.67982960     0.65100
H520        H  0.17086343  0.18406280  0.69786191     0.10600
C521        C  0.15587668  0.26771590  0.67413661     0.63500
H522        H  0.11014287  0.24589070  0.66383364     0.07900
F523        F  0.04362746  0.14734309  0.62453855    -0.19500
F524        F  0.05658387  0.18215388  0.60490162    -0.15800
F525        F  0.01819247  0.18107525  0.62223812    -0.19300
F526        F  0.09467916  0.23578607  0.71679448    -0.22600
F527        F  0.10464511  0.19620955  0.72766889    -0.24100
F528        F  0.06744419  0.21234259  0.73881600    -0.18100
F529        F  0.13763443  0.28104585  0.66106580    -0.20600
F530        F  0.17818838  0.26944917  0.66081795    -0.21800
F531        F  0.15905794  0.27878303  0.69740564    -0.18900
F532        F  0.14846565  0.14693319  0.68634928    -0.19000
F533        F  0.12059598  0.15511556  0.65561905    -0.22900
F534        F  0.10839423  0.15591497  0.69614144    -0.24500
C535        C  0.00924990  0.94282918  0.43606780    -0.11300
C536        C  0.99797468  0.91937949  0.43195001     0.11300
C537        C  0.97930112  0.91054835  0.44879294    -0.03100
C538        C  0.97358897  0.92497610  0.47010891    -0.05800
C539        C  0.98588639  0.94775403  0.47513137    -0.16600
C540        C  0.00288894  0.95765640  0.45694864     0.02300
C541        C  0.00631476  0.90396600  0.41028033     0.12300
C542        C  0.96592121  0.88565299  0.44454906     0.62900
H543        H  0.96018143  0.91796002  0.48361628     0.12300
C544        C  0.01417866  0.98384919  0.45788293     0.55000
H545        H  0.02291531  0.94977240  0.42257766     0.08100
C546        C  0.99516013  0.90576228  0.38599164    -0.05700
C547        C  0.99988038  0.88677912  0.36844061    -0.06400
C548        C  0.01636279  0.86702748  0.37378272    -0.16000
C549        C  0.02935649  0.86641076  0.39715260    -0.01600
C550        C  0.02405207  0.88502624  0.41511999    -0.09200
C551        C  0.97780527  0.92667930  0.37752793     0.65100
H552        H  0.99041779  0.88731162  0.35026454     0.10600
C553        C  0.04772575  0.84556939  0.40347264     0.63500
H554        H  0.03281027  0.88429255  0.43360363     0.07900
F555        F  0.00580270  0.99715471  0.43709897    -0.19500
F556        F  0.04023090  0.98242108  0.45690259    -0.15800
F557        F  0.00766189  0.99710976  0.47916102    -0.19300
F558        F  0.94764839  0.88108158  0.46254545    -0.22600
F559        F  0.98317995  0.86633107  0.44561881    -0.24100
F560        F  0.95422890  0.88564656  0.42119817    -0.18100
F561        F  0.06802819  0.84659247  0.38723229    -0.20600
F562        F  0.03577264  0.82258904  0.40110364    -0.21800
F563        F  0.05692310  0.84751167  0.42785862    -0.18900
F564        F  0.98684560  0.93686995  0.35533905    -0.19000
F565        F  0.97602960  0.94583175  0.39478962    -0.22900
F566        F  0.95394733  0.91695678  0.37310028    -0.24500
C567        C  0.90112313  0.96376388  0.46543805    -0.11300
C568        C  0.90505483  0.98118825  0.44613988     0.11300
C569        C  0.92678373  0.99671695  0.44637887    -0.03100
C570        C  0.94404561  0.99411682  0.46625995    -0.05800
C571        C  0.94055905  0.97615391  0.48520567    -0.16600
C572        C  0.91905306  0.96016904  0.48456741     0.02300
C573        C  0.88694501  0.98169150  0.42499009     0.12300
C574        C  0.93203389  0.01546781  0.42545774     0.62900
H575        H  0.96073104  0.00587946  0.46700642     0.12300
C576        C  0.91430434  0.93846097  0.50247340     0.55000
H577        H  0.88431374  0.95206457  0.46492151     0.08100
C578        C  0.88737151  0.96329375  0.40587487    -0.05700
C579        C  0.87138271  0.96629828  0.38500977    -0.06400
C580        C  0.85523895  0.98691576  0.38289746    -0.16000
C581        C  0.85410716  0.00480431  0.40247535    -0.01600
C582        C  0.86990638  0.00162169  0.42353500    -0.09200
C583        C  0.90466922  0.94071766  0.40742075     0.65100
H584        H  0.87144045  0.95258749  0.37000019     0.10600
C585        C  0.83618440  0.02688758  0.40131166     0.63500
H586        H  0.86962341  0.01503953  0.43878341     0.07900
F587        F  0.91214236  0.91655561  0.48874494    -0.19500
F588        F  0.89183756  0.94218970  0.51498581    -0.15800
F589        F  0.93329378  0.93523730  0.52007092    -0.19300
F590        F  0.91345155  0.03353913  0.42494262    -0.22600
F591        F  0.93249421  0.00331463  0.40249698    -0.24100
F592        F  0.95505316  0.02748902  0.42877143    -0.18100
F593        F  0.81185821  0.01858843  0.39634797    -0.20600
F594        F  0.84370714  0.04328573  0.38258868    -0.21800
F595        F  0.83582824  0.03994520  0.42375329    -0.18900
F596        F  0.90378245  0.92660882  0.38559077    -0.19000
F597        F  0.89749677  0.92541743  0.42716517    -0.22900
F598        F  0.92930100  0.94849836  0.41123083    -0.24500
C599        C  0.88757442  0.09100246  0.54324216    -0.11300
C600        C  0.88681445  0.07246368  0.52457526     0.11300
C601        C  0.86692104  0.07252495  0.50663001    -0.03100
C602        C  0.84910242  0.09202358  0.50723209    -0.05800
C603        C  0.84983726  0.11072986  0.52579478    -0.16600
C604        C  0.86930453  0.11013266  0.54436110     0.02300
C605        C  0.90606715  0.05217214  0.52536861     0.12300
C606        C  0.86418442  0.05177159  0.48727185     0.62900
H607        H  0.83399405  0.09253311  0.49339663     0.12300
C608        C  0.87120263  0.12970844  0.56501607     0.55000
H609        H  0.90252426  0.09012739  0.55719017     0.08100
C610        C  0.92970076  0.05421509  0.51322018    -0.05700
C611        C  0.94613208  0.03348571  0.51371850    -0.06400
C612        C  0.94022717  0.01125349  0.52681933    -0.16000
C613        C  0.91691167  0.00990109  0.53997640    -0.01600
C614        C  0.90036243  0.03041939  0.53895420    -0.09200
C615        C  0.93776823  0.07842179  0.50046392     0.65100
H616        H  0.96404088  0.03455009  0.50402535     0.10600
C617        C  0.90806506  0.98777901  0.55542924     0.63500
H618        H  0.88246285  0.02936785  0.54876223     0.07900
F619        F  0.89330172  0.12740068  0.57889590    -0.19500
F620        F  0.85115936  0.12702092  0.58140039    -0.15800
F621        F  0.87087143  0.15346625  0.55457841    -0.19300
F622        F  0.86109466  0.02899271  0.49930620    -0.22600
F623        F  0.88543603  0.05078382  0.47235080    -0.24100
F624        F  0.84343823  0.05545667  0.47176155    -0.18100
F625        F  0.90549361  0.99514197  0.58021415    -0.20600
F626        F  0.92433491  0.96783260  0.55462039    -0.21800
F627        F  0.88471667  0.97987757  0.54662382    -0.18900
F628        F  0.96152266  0.07651367  0.48988588    -0.19000
F629        F  0.93850668  0.09752297  0.51799196    -0.22900
F630        F  0.92086908  0.08466682  0.48157020    -0.24500
C631        C  0.97689638  0.02412209  0.60688923    -0.11300
C632        C  0.98516305  0.04787281  0.59947484     0.11300
C633        C  0.99265884  0.05228701  0.57438421    -0.03100
C634        C  0.98968126  0.03286109  0.55690260    -0.05800
C635        C  0.98066128  0.00910066  0.56405626    -0.16600
C636        C  0.97465023  0.00443541  0.58966334     0.02300
C637        C  0.98606902  0.06764396  0.61869163     0.12300
C638        C  0.00467270  0.07696175  0.56644022     0.62900
H639        H  0.99519436  0.03578311  0.53751913     0.12300
C640        C  0.96619328  0.97947545  0.60031382     0.55000
H641        H  0.97204987  0.02097611  0.62647208     0.08100
C642        C  0.96495582  0.08291657  0.62356408    -0.05700
C643        C  0.96771606  0.10241296  0.64103016    -0.06400
C644        C  0.99060081  0.10638387  0.65398770    -0.16000
C645        C  0.01077215  0.08927424  0.65100039    -0.01600
C646        C  0.00824611  0.07039078  0.63287164    -0.09200
C647        C  0.93982187  0.07871348  0.61018932     0.65100
H648        H  0.95228637  0.11530866  0.64394588     0.10600
C649        C  0.03457698  0.09031706  0.66712697     0.63500
H650        H  0.02379046  0.05788547  0.62928207     0.07900
F651        F  0.94337077  0.98234138  0.61247697    -0.19500
F652        F  0.98393488  0.97140479  0.61768919    -0.15800
F653        F  0.96318650  0.96124325  0.58229290    -0.19300
F654        F  0.02696093  0.08054403  0.57969775    -0.22600
F655        F  0.98862110  0.09665945  0.57132216    -0.24100
F656        F  0.01022077  0.07735263  0.54099187    -0.18100
F657        F  0.04768561  0.06795241  0.66620524    -0.20600
F658        F  0.02838003  0.09466048  0.69200442    -0.21800
F659        F  0.05044315  0.10913391  0.65873681    -0.18900
F660        F  0.92168374  0.09553694  0.61800487    -0.19000
F661        F  0.93101089  0.05481284  0.61521508    -0.22900
F662        F  0.94273646  0.08142907  0.58449648    -0.24500
C663        C  0.05286104  0.96125494  0.58973214    -0.11300
C664        C  0.06695008  0.98336688  0.58751995     0.11300
C665        C  0.05998206  0.00134335  0.56921763    -0.03100
C666        C  0.03826611  0.99689867  0.55442931    -0.05800
C667        C  0.02306095  0.97541501  0.55762283    -0.16600
C668        C  0.03087814  0.95695125  0.57538407     0.02300
C669        C  0.08875940  0.98707163  0.60493550     0.12300
C670        C  0.07558658  0.02492411  0.56515336     0.62900
H671        H  0.03310995  0.01011904  0.53983801     0.12300
C672        C  0.01743453  0.93236699  0.58028493     0.55000
H673        H  0.05890539  0.94729160  0.60333433     0.08100
C674        C  0.08540598  0.99520531  0.63008579    -0.05700
C675        C  0.10677112  0.99753160  0.64589996    -0.06400
C676        C  0.13100234  0.99141123  0.63742326    -0.16000
C677        C  0.13431525  0.98314864  0.61235889    -0.01600
C678        C  0.11303061  0.98115330  0.59642817    -0.09200
C679        C  0.05928392  0.00093181  0.64019335     0.65100
H680        H  0.10464150  0.00340494  0.66527939     0.10600
C681        C  0.16029103  0.97641782  0.60265986     0.63500
H682        H  0.11506894  0.97452869  0.57728549     0.07900
F683        F  0.01183515  0.93036007  0.60561435    -0.19500
F684        F  0.03329550  0.91291996  0.57392181    -0.15800
F685        F  0.99525659  0.92986315  0.56694708    -0.19300
F686        F  0.09934699  0.01854805  0.55670394    -0.22600
F687        F  0.07797333  0.03801966  0.58747562    -0.24100
F688        F  0.06463290  0.04066569  0.54749094    -0.18100
F689        F  0.16973377  0.95630254  0.61611860    -0.20600
F690        F  0.17642307  0.99668292  0.60548466    -0.21800
F691        F  0.15966524  0.96997042  0.57742652    -0.18900
F692        F  0.06030686  0.01022847  0.66449134    -0.19000
F693        F  0.04470855  0.97937869  0.64042445    -0.22900
F694        F  0.04765687  0.01854684  0.62506383    -0.24500
C695        C  0.04733422  0.90398270  0.50862098    -0.11300
C696        C  0.06911129  0.91754210  0.50240866     0.11300
C697        C  0.06833148  0.94386423  0.50062768    -0.03100
C698        C  0.04581678  0.95601895  0.50680914    -0.05800
C699        C  0.02399859  0.94264214  0.51372977    -0.16600
C700        C  0.02449764  0.91596906  0.51401684     0.02300
C701        C  0.09277842  0.90354460  0.49920407     0.12300
C702        C  0.09118446  0.95884001  0.49212918     0.62900
H703        H  0.04495451  0.97623958  0.50601249     0.12300
C704        C  0.00219874  0.89892691  0.51994669     0.55000
H705        H  0.04830703  0.88370858  0.50951999     0.08100
C706        C  0.10913851  0.89844559  0.51965414    -0.05700
C707        C  0.13000163  0.88309787  0.51549157    -0.06400
C708        C  0.13508228  0.87214081  0.49191760    -0.16000
C709        C  0.11880573  0.87793515  0.47122068    -0.01600
C710        C  0.09787052  0.89357572  0.47542004    -0.09200
C711        C  0.10548699  0.90799256  0.54639876     0.65100
H712        H  0.14233289  0.87942948  0.53135489     0.10600
C713        C  0.12233941  0.86702841  0.44515408     0.63500
H714        H  0.08477090  0.89775923  0.46024593     0.07900
F715        F  0.00805181  0.88399529  0.54045135    -0.19500
F716        F  0.99753169  0.88346121  0.49957583    -0.15800
F717        F  0.98030963  0.91167629  0.52529681    -0.19300
F718        F  0.09793131  0.95137798  0.46818060    -0.22600
F719        F  0.11124204  0.95486018  0.50841538    -0.24100
F720        F  0.08635698  0.98428958  0.49146419    -0.18100
F721        F  0.12111761  0.84125736  0.44664231    -0.20600
F722        F  0.14534616  0.87452940  0.43542864    -0.21800
F723        F  0.10377513  0.87477134  0.42843085    -0.18900
F724        F  0.12704258  0.92069084  0.55406993    -0.19000
F725        F  0.10173174  0.88778354  0.56230571    -0.22900
F726        F  0.08528015  0.92401464  0.54901691    -0.24500
C727        C  0.64953545  0.26524878  0.40622163    -0.11300
C728        C  0.67361218  0.26071191  0.39653765     0.11300
C729        C  0.69533895  0.26588122  0.41144191    -0.03100
C730        C  0.69214185  0.27684109  0.43525207    -0.05800
C731        C  0.66813942  0.28343691  0.44407937    -0.16600
C732        C  0.64633049  0.27641295  0.42995692     0.02300
C733        C  0.67593526  0.25503470  0.36936572     0.12300
C734        C  0.72186807  0.26131259  0.40158141     0.62900
H735        H  0.70856886  0.28198182  0.44638644     0.12300
C736        C  0.61972195  0.28115664  0.43933577     0.55000
H737        H  0.63324833  0.26132467  0.39438962     0.08100
C738        C  0.67738230  0.23042769  0.35972163    -0.05700
C739        C  0.68643947  0.22714839  0.33497089    -0.06400
C740        C  0.69291740  0.24785434  0.31983635    -0.16000
C741        C  0.68691263  0.27217790  0.32831402    -0.01600
C742        C  0.67910258  0.27545124  0.35317977    -0.09200
C743        C  0.66964488  0.20806328  0.37560082     0.65100
H744        H  0.69056938  0.20851644  0.32815471     0.10600
C745        C  0.69101254  0.29524963  0.31250032     0.63500
H746        H  0.67688925  0.29425826  0.36051324     0.07900
F747        F  0.60210992  0.26677249  0.42641888    -0.19500
F748        F  0.61360707  0.30607973  0.43587148    -0.15800
F749        F  0.61792975  0.27508331  0.46461798    -0.19300
F750        F  0.72652318  0.27672206  0.38116266    -0.22600
F751        F  0.72436595  0.23665450  0.39421691    -0.24100
F752        F  0.74016055  0.26615426  0.41969835    -0.18100
F753        F  0.67125291  0.31179605  0.31569672    -0.20600
F754        F  0.69207977  0.28930277  0.28725016    -0.21800
F755        F  0.71324179  0.30669529  0.32005110    -0.18900
F756        F  0.67297439  0.18574542  0.36286148    -0.19000
F757        F  0.64436064  0.21011300  0.38164389    -0.22900
F758        F  0.68369219  0.20715781  0.39760220    -0.24500
C759        C  0.28668570  0.36103289  0.68857507    -0.11300
C760        C  0.26580787  0.37347910  0.67828041     0.11300
C761        C  0.24291309  0.35999019  0.67462128    -0.03100
C762        C  0.24170955  0.33452820  0.68202490    -0.05800
C763        C  0.26168944  0.32297254  0.69513912    -0.16600
C764        C  0.28483560  0.33646772  0.69815483     0.02300
C765        C  0.26881393  0.40072631  0.67200891     0.12300
C766        C  0.21936821  0.37287161  0.66463605     0.62900
H767        H  0.22414610  0.32422434  0.67991638     0.12300
C768        C  0.30739160  0.32578329  0.71230423     0.55000
H769        H  0.30419394  0.37145719  0.69053878     0.08100
C770        C  0.27127385  0.41947631  0.69085497    -0.05700
C771        C  0.27758705  0.44425624  0.68366832    -0.06400
C772        C  0.28117127  0.45084036  0.65831889    -0.16000
C773        C  0.27594177  0.43259842  0.63945048    -0.01600
C774        C  0.27102438  0.40768198  0.64668226    -0.09200
C775        C  0.26805097  0.41318980  0.71852698     0.65100
H776        H  0.28139678  0.45823469  0.69795894     0.10600
C777        C  0.27605052  0.43856398  0.61148531     0.63500
H778        H  0.26923743  0.39334910  0.63235155     0.07900
F779        F  0.30276959  0.32570902  0.73787925    -0.19500
F780        F  0.32913843  0.33971386  0.70823602    -0.15800
F781        F  0.31202768  0.30172529  0.70441571    -0.19300
F782        F  0.22322396  0.38103058  0.64025754    -0.22600
F783        F  0.21373584  0.39319530  0.67965488    -0.24100
F784        F  0.19860987  0.35698009  0.66453968    -0.18100
F785        F  0.25776730  0.42451476  0.59911285    -0.20600
F786        F  0.29941073  0.43282391  0.60157424    -0.21800
F787        F  0.27073547  0.46352102  0.60693168    -0.18900
F788        F  0.26710612  0.43457097  0.73318266    -0.19000
F789        F  0.28808200  0.39885104  0.72690183    -0.22900
F790        F  0.24579209  0.39998556  0.72194031    -0.24500
C791        C  0.44892978  0.69766780  0.27800302    -0.11300
C792        C  0.42576375  0.69589913  0.29069643     0.11300
C793        C  0.42562741  0.68825740  0.31623828    -0.03100
C794        C  0.44881873  0.68374056  0.32847501    -0.05800
C795        C  0.47221686  0.68674009  0.31631058    -0.16600
C796        C  0.47229207  0.69368439  0.29043020     0.02300
C797        C  0.40231881  0.70513534  0.27787433     0.12300
C798        C  0.40109267  0.68528526  0.33071037     0.62900
H799        H  0.44880055  0.67817559  0.34806313     0.12300
C800        C  0.49667482  0.69713272  0.27589313     0.55000
H801        H  0.44855380  0.70334187  0.25841317     0.08100
C802        C  0.39762659  0.73107265  0.27551999    -0.05700
C803        C  0.37454187  0.73894000  0.26504041    -0.06400
C804        C  0.35496591  0.72201081  0.25852958    -0.16000
C805        C  0.35994625  0.69588690  0.26037965    -0.01600
C806        C  0.38386688  0.68797732  0.26949560    -0.09200
C807        C  0.41640793  0.75048656  0.28530260     0.65100
H808        H  0.37121137  0.75882442  0.26303848     0.10600
C809        C  0.34010804  0.67638432  0.25364544     0.63500
H810        H  0.38805953  0.66821643  0.27110588     0.07900
F811        F  0.49223000  0.70101337  0.25046132    -0.19500
F812        F  0.51157913  0.67605089  0.27834250    -0.15800
F813        F  0.50959744  0.71779672  0.28502540    -0.19300
F814        F  0.38658821  0.66647432  0.32002191    -0.22600
F815        F  0.38771973  0.70743501  0.33009645    -0.24100
F816        F  0.40530574  0.67904711  0.35570604    -0.18100
F817        F  0.34883486  0.65224381  0.25733189    -0.20600
F818        F  0.33337775  0.67880568  0.22855585    -0.21800
F819        F  0.31904315  0.67949719  0.26857978    -0.18900
F820        F  0.40718718  0.77457852  0.28308695    -0.19000
F821        F  0.43865991  0.74926877  0.27190040    -0.22900
F822        F  0.42147387  0.74617253  0.31051740    -0.24500
C823        C  0.70335854  0.36901084  0.27119864    -0.11300
C824        C  0.71754158  0.37771575  0.29188069     0.11300
C825        C  0.73729500  0.36267619  0.30162750    -0.03100
C826        C  0.74288259  0.34007640  0.28943215    -0.05800
C827        C  0.72886231  0.33111280  0.26860972    -0.16600
C828        C  0.70875875  0.34607487  0.25912632     0.02300
C829        C  0.71164659  0.40275458  0.30285387     0.12300
C830        C  0.75238673  0.37008921  0.32503758     0.62900
H831        H  0.75795591  0.32866015  0.29693905     0.12300
C832        C  0.69284471  0.33807703  0.23664452     0.55000
H833        H  0.68775930  0.38038232  0.26468466     0.08100
C834        C  0.71742103  0.42553581  0.29022391    -0.05700
C835        C  0.71252719  0.44838914  0.30246453    -0.06400
C836        C  0.70331393  0.44917553  0.32718867    -0.16000
C837        C  0.69977248  0.42632150  0.34050162    -0.01600
C838        C  0.70188522  0.40367748  0.32732276    -0.09200
C839        C  0.72838421  0.42589869  0.26385726     0.65100
H840        H  0.71519244  0.46589079  0.29246027     0.10600
C841        C  0.69603227  0.42437628  0.36883557     0.63500
H842        H  0.69707827  0.38633195  0.33680997     0.07900
F843        F  0.70805346  0.33582480  0.21569387    -0.19500
F844        F  0.67420298  0.35533346  0.23098837    -0.15800
F845        F  0.68112848  0.31540723  0.24160586    -0.19300
F846        F  0.73723545  0.36903523  0.34607558    -0.22600
F847        F  0.76197370  0.39408850  0.32236387    -0.24100
F848        F  0.77239315  0.35409986  0.32948556    -0.18100
F849        F  0.67294931  0.41334065  0.37392984    -0.20600
F850        F  0.69750529  0.44718201  0.38100498    -0.21800
F851        F  0.71479174  0.40937591  0.37893081    -0.18900
F852        F  0.71076591  0.41695275  0.24677798    -0.19000
F853        F  0.74970785  0.41116575  0.26299813    -0.22900
F854        F  0.73521492  0.44985896  0.25645892    -0.24500
C855        C  0.31079763  0.70711970  0.35897720    -0.11300
C856        C  0.29244623  0.69021569  0.36708328     0.11300
C857        C  0.27198065  0.68406238  0.35100291    -0.03100
C858        C  0.27171534  0.69381205  0.32620044    -0.05800
C859        C  0.29001202  0.71124725  0.31794059    -0.16600
C860        C  0.30964476  0.71856213  0.33523099     0.02300
C861        C  0.29533268  0.68065908  0.39323864     0.12300
C862        C  0.24980397  0.66879294  0.36066788     0.62900
H863        H  0.25609333  0.68930727  0.31373113     0.12300
C864        C  0.32896935  0.73907991  0.32989812     0.55000
H865        H  0.32566519  0.71208947  0.37219612     0.08100
C866        C  0.31127669  0.66024815  0.39872892    -0.05700
C867        C  0.31709103  0.65498424  0.42401463    -0.06400
C868        C  0.30969332  0.67076924  0.44394929    -0.16000
C869        C  0.29328586  0.69117635  0.43832448    -0.01600
C870        C  0.28619260  0.69540594  0.41299080    -0.09200
C871        C  0.32356641  0.64513292  0.37788120     0.65100
H872        H  0.32869881  0.63889839  0.42815672     0.10600
C873        C  0.28400407  0.70921218  0.45831843     0.63500
H874        H  0.27463325  0.71133499  0.40813227     0.07900
F875        F  0.33997018  0.73501641  0.30696290    -0.19500
F876        F  0.34822400  0.73971949  0.34767374    -0.15800
F877        F  0.31747750  0.76228027  0.33011005    -0.19300
F878        F  0.23874113  0.68125762  0.38052634    -0.22600
F879        F  0.25781179  0.64561352  0.36896090    -0.24100
F880        F  0.23158398  0.66513442  0.34221350    -0.18100
F881        F  0.30439232  0.72077664  0.46994042    -0.20600
F882        F  0.26977286  0.69639324  0.47595007    -0.21800
F883        F  0.26887781  0.72783284  0.44822914    -0.18900
F884        F  0.33809040  0.62574581  0.38735050    -0.19000
F885        F  0.33917879  0.66047444  0.36378239    -0.22900
F886        F  0.30532037  0.63489269  0.36227056    -0.24500
C887        C  0.41152057  0.29454376  0.70743589    -0.11300
C888        C  0.40396830  0.27201321  0.69585544     0.11300
C889        C  0.42069991  0.26044084  0.67867981    -0.03100
C890        C  0.44445483  0.27176101  0.67388218    -0.05800
C891        C  0.45215235  0.29398394  0.68589150    -0.16600
C892        C  0.43545405  0.30555684  0.70300860     0.02300
C893        C  0.37879709  0.26072769  0.70282713     0.12300
C894        C  0.41336210  0.23641421  0.66520408     0.62900
H895        H  0.45711762  0.26354046  0.66029404     0.12300
C896        C  0.44281388  0.32975196  0.71612428     0.55000
H897        H  0.39842696  0.30342994  0.72016470     0.08100
C898        C  0.37497242  0.24875786  0.72640150    -0.05700
C899        C  0.35050574  0.24055484  0.73295771    -0.06400
C900        C  0.32988628  0.24311867  0.71646591    -0.16000
C901        C  0.33406486  0.25270448  0.69192905    -0.01600
C902        C  0.35831498  0.26225695  0.68583373    -0.09200
C903        C  0.39660920  0.24514295  0.74482096     0.65100
H904        H  0.34707214  0.23290973  0.75155456     0.10600
C905        C  0.31349058  0.25128130  0.67190154     0.63500
H906        H  0.36146333  0.27098270  0.66769927     0.07900
F907        F  0.42406134  0.33799333  0.73212022    -0.19500
F908        F  0.44725146  0.34826235  0.69840362    -0.15800
F909        F  0.46450583  0.32607719  0.73027190    -0.19300
F910        F  0.39354692  0.24097824  0.64878974    -0.22600
F911        F  0.40606238  0.21839996  0.68247357    -0.24100
F912        F  0.43322585  0.22687838  0.65142973    -0.18100
F913        F  0.32175983  0.26047622  0.64897243    -0.20600
F914        F  0.29254381  0.26482917  0.67888468    -0.21800
F915        F  0.30637540  0.22653771  0.66863483    -0.18900
F916        F  0.38939454  0.23130781  0.76568617    -0.19000
F917        F  0.40507408  0.26822405  0.75294113    -0.22900
F918        F  0.41618526  0.23266934  0.73324100    -0.24500
C919        C  0.45300433  0.57230430  0.51019798    -0.11300
C920        C  0.42968869  0.56878563  0.49819747     0.11300
C921        C  0.42337501  0.54527322  0.48769739    -0.03100
C922        C  0.44073188  0.52567739  0.49016661    -0.05800
C923        C  0.46425478  0.52905941  0.50202896    -0.16600
C924        C  0.47058586  0.55286011  0.51232887     0.02300
C925        C  0.41174845  0.58982436  0.49780253     0.12300
C926        C  0.39871461  0.54110953  0.47343515     0.62900
H927        H  0.43638616  0.50765650  0.48197074     0.12300
C928        C  0.49514602  0.55917527  0.52581948     0.55000
H929        H  0.45746499  0.59052428  0.51810924     0.08100
C930        C  0.39469825  0.59350861  0.51771285    -0.05700
C931        C  0.37612691  0.61189391  0.51500360    -0.06400
C932        C  0.37510546  0.62771466  0.49385087    -0.16000
C933        C  0.39385527  0.62543505  0.47488871    -0.01600
C934        C  0.41166785  0.60605390  0.47707364    -0.09200
C935        C  0.39637708  0.57816015  0.54175220     0.65100
H936        H  0.36195766  0.61371280  0.52936041     0.10600
C937        C  0.39571251  0.64346095  0.45280085     0.63500
H938        H  0.42552912  0.60315480  0.46244621     0.07900
F939        F  0.48988421  0.56644438  0.55019514    -0.19500
F940        F  0.50684446  0.57897702  0.51365452    -0.15800
F941        F  0.51186164  0.53949599  0.52684941    -0.19300
F942        F  0.39766541  0.55704643  0.45290553    -0.22600
F943        F  0.37837323  0.54579458  0.48888049    -0.24100
F944        F  0.39643857  0.51677560  0.46471016    -0.18100
F945        F  0.39444932  0.66789743  0.46128403    -0.20600
F946        F  0.37631002  0.63896334  0.43589287    -0.21800
F947        F  0.41828647  0.64081692  0.44004528    -0.18900
F948        F  0.37726818  0.58392326  0.55841457    -0.19000
F949        F  0.41924656  0.58282385  0.55359573    -0.22900
F950        F  0.39471709  0.55300020  0.53617408    -0.24500
C951        C  0.43669020  0.49370059  0.57375364    -0.11300
C952        C  0.41358155  0.48540639  0.56371195     0.11300
C953        C  0.41256395  0.47656970  0.53863145    -0.03100
C954        C  0.43494853  0.47634119  0.52448028    -0.05800
C955        C  0.45807177  0.48509732  0.53428859    -0.16600
C956        C  0.45906173  0.49362725  0.55959831     0.02300
C957        C  0.39073323  0.48683430  0.57986360     0.12300
C958        C  0.38792088  0.46770859  0.52676047     0.62900
H959        H  0.43435279  0.47009295  0.50515053     0.12300
C960        C  0.48274671  0.50280185  0.57292327     0.55000
H961        H  0.43720183  0.50059466  0.59294800     0.08100
C962        C  0.38580921  0.46908178  0.59904022    -0.05700
C963        C  0.36443503  0.47219355  0.61423996    -0.06400
C964        C  0.34822080  0.49271100  0.61123123    -0.16000
C965        C  0.35283145  0.51027311  0.59171173    -0.01600
C966        C  0.37419174  0.50698786  0.57643141    -0.09200
C967        C  0.40341464  0.44732798  0.60385854     0.65100
H968        H  0.36064420  0.45894750  0.62924411     0.10600
C969        C  0.33509504  0.53197988  0.58653017     0.63500
H970        H  0.37829420  0.52028552  0.56172566     0.07900
F971        F  0.48776911  0.48725005  0.59319576    -0.19500
F972        F  0.47883384  0.52678456  0.58179830    -0.15800
F973        F  0.50372623  0.50327304  0.55772152    -0.19300
F974        F  0.37099987  0.48729982  0.52551339    -0.22600
F975        F  0.37760476  0.44855865  0.54099123    -0.24100
F976        F  0.39139113  0.45885583  0.50254464    -0.18100
F977        F  0.33705154  0.54941250  0.60565651    -0.20600
F978        F  0.31044880  0.52333958  0.58492143    -0.21800
F979        F  0.34071492  0.54393031  0.56407230    -0.18900
F980        F  0.39391294  0.43092902  0.62172388    -0.19000
F981        F  0.42633642  0.45638233  0.61257014    -0.22900
F982        F  0.40701663  0.43410375  0.58183031    -0.24500
C983        C  0.49744542  0.61556855  0.41962974    -0.11300
C984        C  0.51114443  0.59375430  0.41448573     0.11300
C985        C  0.52596008  0.59248817  0.39231980    -0.03100
C986        C  0.52662247  0.61334704  0.37616633    -0.05800
C987        C  0.51280201  0.63502634  0.38122089    -0.16600
C988        C  0.49802147  0.63635936  0.40329028     0.02300
C989        C  0.50855212  0.57242323  0.43223070     0.12300
C990        C  0.54120051  0.56981273  0.38448084     0.62900
H991        H  0.53785853  0.61258245  0.35916864     0.12300
C992        C  0.48287424  0.65957427  0.40945151     0.55000
H993        H  0.48599081  0.61601842  0.43646434     0.08100
C994        C  0.52472987  0.56959331  0.45329150    -0.05700
C995        C  0.52183359  0.54833868  0.46870399    -0.06400
C996        C  0.50302425  0.53025445  0.46400610    -0.16000
C997        C  0.48709491  0.53294480  0.44249609    -0.01600
C998        C  0.48996020  0.55430434  0.42723996    -0.09200
C999        C  0.54488188  0.58902795  0.45933493     0.65100
H1000       H  0.53426590  0.54568500  0.48470878     0.10600
C1001       C  0.46741262  0.51384801  0.43406024     0.63500
H1002       H  0.47791228  0.55660789  0.41081042     0.07900
F1003       F  0.47290108  0.65844969  0.43347025    -0.19500
F1004       F  0.46311415  0.66187008  0.39249404    -0.15800
F1005       F  0.49812206  0.68065028  0.40803256    -0.19300
F1006       F  0.53163909  0.56066717  0.36199697    -0.22600
F1007       F  0.54086789  0.55065675  0.40193984    -0.24100
F1008       F  0.56609528  0.57690819  0.38093209    -0.18100
F1009       F  0.44381469  0.52480218  0.43422534    -0.20600
F1010       F  0.46674132  0.49259058  0.44890344    -0.21800
F1011       F  0.47247684  0.50644410  0.40970160    -0.18900
F1012       F  0.53362269  0.61188457  0.46381263    -0.19000
F1013       F  0.56125966  0.59146114  0.43928739    -0.22900
F1014       F  0.55888648  0.58257544  0.48045272    -0.24500
C1015       C  0.58276486  0.49753835  0.44850377    -0.11300
C1016       C  0.57577137  0.49608031  0.42299640     0.11300
C1017       C  0.55007652  0.49174927  0.41649150    -0.03100
C1018       C  0.53272878  0.48780326  0.43593967    -0.05800
C1019       C  0.53948443  0.49065044  0.46136744    -0.16600
C1020       C  0.56479374  0.49688816  0.46773654     0.02300
C1021       C  0.59615776  0.49817433  0.40406902     0.12300
C1022       C  0.53969895  0.49151051  0.38970721     0.62900
H1023       H  0.51325971  0.48365720  0.43113883     0.12300
C1024       C  0.57389853  0.50457948  0.49377812     0.55000
H1025       H  0.60243804  0.50073778  0.45339494     0.08100
C1026       C  0.61324844  0.51870939  0.40334579    -0.05700
C1027       C  0.63451984  0.51706391  0.38786131    -0.06400
C1028       C  0.63808445  0.49684625  0.37136103    -0.16000
C1029       C  0.61925143  0.47777481  0.36999405    -0.01600
C1030       C  0.59961433  0.47799358  0.38762469    -0.09200
C1031       C  0.61030663  0.54250313  0.41870240     0.65100
H1032       H  0.64845407  0.53199607  0.38865492     0.10600
C1033       C  0.61876530  0.45786904  0.34958391     0.63500
H1034       H  0.58643620  0.46242033  0.38844815     0.07900
F1035       F  0.58481235  0.52813656  0.49230921    -0.19500
F1036       F  0.59203602  0.48791305  0.50212148    -0.15800
F1037       F  0.55482241  0.50570206  0.51135144    -0.19300
F1038       F  0.53351878  0.46719648  0.38310194    -0.22600
F1039       F  0.55631544  0.50120682  0.37221523    -0.24100
F1040       F  0.51809664  0.50589337  0.38839902    -0.18100
F1041       F  0.63655436  0.43977190  0.35466871    -0.20600
F1042       F  0.62356459  0.46865799  0.32637443    -0.21800
F1043       F  0.59541346  0.44612064  0.34802452    -0.18900
F1044       F  0.61517210  0.56315834  0.40367552    -0.19000
F1045       F  0.62748382  0.54231620  0.43842367    -0.22900
F1046       F  0.58627775  0.54532448  0.42825143    -0.24500
C1047       C  0.55498361  0.41076598  0.47522460    -0.11300
C1048       C  0.57399559  0.41070748  0.49366555     0.11300
C1049       C  0.57458037  0.42954044  0.51226241    -0.03100
C1050       C  0.55504041  0.44717624  0.51256638    -0.05800
C1051       C  0.53563247  0.44717289  0.49441535    -0.16600
C1052       C  0.53579596  0.42884279  0.47502955     0.02300
C1053       C  0.59309909  0.39064633  0.49290823     0.12300
C1054       C  0.59614415  0.43136684  0.53117229     0.62900
H1055       H  0.55512850  0.46159710  0.52678733     0.12300
C1056       C  0.51673611  0.42718773  0.45362838     0.55000
H1057       H  0.55514528  0.39642915  0.46078571     0.08100
C1058       C  0.59122548  0.36855659  0.50771398    -0.05700
C1059       C  0.61052705  0.35073855  0.50603150    -0.06400
C1060       C  0.63074773  0.35382194  0.48941853    -0.16000
C1061       C  0.63236839  0.37552197  0.47420868    -0.01600
C1062       C  0.61346379  0.39378207  0.47636584    -0.09200
C1063       C  0.56942453  0.36245881  0.52526146     0.65100
H1064       H  0.60947522  0.33386034  0.51740032     0.10600
C1065       C  0.65411238  0.37938631  0.45607372     0.63500
H1066       H  0.61431802  0.41067247  0.46505100     0.07900
F1067       F  0.50534974  0.40382374  0.45390266    -0.19500
F1068       F  0.52919872  0.43012716  0.43097941    -0.15800
F1069       F  0.49802115  0.44497532  0.45485283    -0.19300
F1070       F  0.61870754  0.43446678  0.51850849    -0.22600
F1071       F  0.59731831  0.40981579  0.54554733    -0.24100
F1072       F  0.59329198  0.45144275  0.54734457    -0.18100
F1073       F  0.65323914  0.36125117  0.43754304    -0.20600
F1074       F  0.67685196  0.37771531  0.46894010    -0.21800
F1075       F  0.65313230  0.40260315  0.44445782    -0.18900
F1076       F  0.55843477  0.34005329  0.51792777    -0.19000
F1077       F  0.55077031  0.38045677  0.52544612    -0.22900
F1078       F  0.57861689  0.35981276  0.54955437    -0.24500
C1079       C  0.48177814  0.40346199  0.54588159    -0.11300
C1080       C  0.49712307  0.40502589  0.56742040     0.11300
C1081       C  0.51255876  0.42637163  0.57120626    -0.03100
C1082       C  0.51144407  0.44594207  0.55353623    -0.05800
C1083       C  0.49584938  0.44473291  0.53207215    -0.16600
C1084       C  0.48082479  0.42294753  0.52801269     0.02300
C1085       C  0.49525585  0.38490593  0.58664648     0.12300
C1086       C  0.53006545  0.42842810  0.59386838     0.62900
H1087       H  0.52312230  0.46236113  0.55625189     0.12300
C1088       C  0.46333849  0.41898997  0.50565633     0.55000
H1089       H  0.47000095  0.38697612  0.54326996     0.08100
C1090       C  0.47703527  0.38538682  0.60612068    -0.05700
C1091       C  0.47736725  0.36643873  0.62444403    -0.06400
C1092       C  0.49552871  0.34749068  0.62434134    -0.16000
C1093       C  0.51326212  0.34644057  0.60447473    -0.01600
C1094       C  0.51259536  0.36513517  0.58568883    -0.09200
C1095       C  0.45725239  0.40556901  0.60915687     0.65100
H1096       H  0.46392024  0.36714180  0.63976945     0.10600
C1097       C  0.53253965  0.32556618  0.60297522     0.63500
H1098       H  0.52614584  0.36493799  0.57049169     0.07900
F1099       F  0.43885445  0.41599911  0.51416983    -0.19500
F1100       F  0.47032993  0.39746455  0.49311525    -0.15800
F1101       F  0.46365849  0.43854977  0.48869903    -0.19300
F1102       F  0.54730145  0.40906430  0.59352499    -0.22600
F1103       F  0.51620853  0.42709427  0.61581865    -0.24100
F1104       F  0.54342720  0.45079402  0.59399638    -0.18100
F1105       F  0.52042001  0.30261413  0.60465814    -0.20600
F1106       F  0.54986193  0.32775650  0.62243468    -0.21800
F1107       F  0.54567171  0.32622115  0.58051364    -0.18900
F1108       F  0.46062869  0.41711800  0.63223911    -0.19000
F1109       F  0.43355309  0.39455260  0.60851255    -0.22900
F1110       F  0.45814786  0.42379630  0.59071360    -0.24500
C1111       C  0.81798044  0.25470168  0.13946413    -0.11300
C1112       C  0.80455335  0.27318987  0.12629187     0.11300
C1113       C  0.78183513  0.28254341  0.13637762    -0.03100
C1114       C  0.77488739  0.27514308  0.16081766    -0.05800
C1115       C  0.78859333  0.25706777  0.17457106    -0.16600
C1116       C  0.80980679  0.24550442  0.16302253     0.02300
C1117       C  0.81384921  0.28117960  0.10114562     0.12300
C1118       C  0.76434549  0.29917734  0.12088235     0.62900
H1119       H  0.75789272  0.28275753  0.16899119     0.12300
C1120       C  0.82317445  0.22287366  0.17432311     0.55000
H1121       H  0.83450313  0.24687652  0.13055773     0.08100
C1122       C  0.82883945  0.30286159  0.09791236    -0.05700
C1123       C  0.83532071  0.31023625  0.07334213    -0.06400
C1124       C  0.82903883  0.29576483  0.05190273    -0.16000
C1125       C  0.81566442  0.27281516  0.05571333    -0.01600
C1126       C  0.80792274  0.26628026  0.08026239    -0.09200
C1127       C  0.83923344  0.31731305  0.12038885     0.65100
H1128       H  0.84591364  0.32743445  0.07092832     0.10600
C1129       C  0.80977790  0.25491130  0.03444661     0.63500
H1130       H  0.79713439  0.24930443  0.08348672     0.07900
F1131       F  0.84525540  0.21744892  0.16163950    -0.19500
F1132       F  0.80753809  0.20216721  0.17263513    -0.15800
F1133       F  0.82945737  0.22674897  0.19926503    -0.19300
F1134       F  0.75714190  0.28680594  0.09914449    -0.22600
F1135       F  0.77635999  0.32121445  0.11427800    -0.24100
F1136       F  0.74266642  0.30524635  0.13393645    -0.18100
F1137       F  0.80029597  0.23225331  0.04304491    -0.20600
F1138       F  0.83161833  0.24985294  0.02127629    -0.21800
F1139       F  0.79179741  0.26552637  0.01882669    -0.18900
F1140       F  0.85363789  0.33775257  0.11304319    -0.19000
F1141       F  0.85442477  0.30169516  0.13463887    -0.22900
F1142       F  0.81988563  0.32598575  0.13527814    -0.24500
C1143       C  0.06674803  0.30206237  0.81540766    -0.11300
C1144       C  0.07498214  0.29888599  0.79061573     0.11300
C1145       C  0.05844290  0.30521245  0.77048445    -0.03100
C1146       C  0.03534521  0.31723084  0.77589293    -0.05800
C1147       C  0.02794757  0.32224062  0.80076112    -0.16600
C1148       C  0.04327632  0.31312744  0.82091150     0.02300
C1149       C  0.10123003  0.28939228  0.78641576     0.12300
C1150       C  0.06511324  0.29897741  0.74348369     0.62900
H1151       H  0.02317813  0.32338652  0.76065226     0.12300
C1152       C  0.03482116  0.31423755  0.84818762     0.55000
H1153       H  0.07920065  0.29623595  0.83056614     0.08100
C1154       C  0.12242027  0.30575416  0.78574983    -0.05700
C1155       C  0.14645045  0.29587499  0.78015828    -0.06400
C1156       C  0.15009233  0.27022724  0.77585036    -0.16000
C1157       C  0.12925670  0.25362507  0.77878757    -0.01600
C1158       C  0.10507458  0.26355314  0.78375920    -0.09200
C1159       C  0.11959395  0.33352566  0.79108894     0.65100
H1160       H  0.16267772  0.30816064  0.77908179     0.10600
C1161       C  0.13247875  0.22558762  0.77624860     0.63500
H1162       H  0.08882656  0.25123762  0.78524249     0.07900
F1163       F  0.03789427  0.33817623  0.85750480    -0.19500
F1164       F  0.04876558  0.29818888  0.86327809    -0.15800
F1165       F  0.00970333  0.30718907  0.85000527    -0.19300
F1166       F  0.06740929  0.27333005  0.74108423    -0.22600
F1167       F  0.08771451  0.31026611  0.73697161    -0.24100
F1168       F  0.04671105  0.30693677  0.72668409    -0.18100
F1169       F  0.11011314  0.21272184  0.78044445    -0.20600
F1170       F  0.15015337  0.21726011  0.79357080    -0.21800
F1171       F  0.14056121  0.22002103  0.75230815    -0.18900
F1172       F  0.14227554  0.34629866  0.78869649    -0.19000
F1173       F  0.11111011  0.33678916  0.81542853    -0.22900
F1174       F  0.10242384  0.34403907  0.77449671    -0.24500
C1175       C  0.82677481  0.33942994  0.21715150    -0.11300
C1176       C  0.82200669  0.35843738  0.23455578     0.11300
C1177       C  0.81438247  0.35164964  0.25915542    -0.03100
C1178       C  0.80814514  0.32635007  0.26423894    -0.05800
C1179       C  0.81072993  0.30747308  0.24597891    -0.16600
C1180       C  0.82256357  0.31404709  0.22300703     0.02300
C1181       C  0.82408011  0.38507156  0.22596681     0.12300
C1182       C  0.81058219  0.37105724  0.27946454     0.62900
H1183       H  0.79965006  0.32151910  0.28211258     0.12300
C1184       C  0.83278381  0.29512558  0.20497316     0.55000
H1185       H  0.83392890  0.34443996  0.19870917     0.08100
C1186       C  0.84764095  0.39739653  0.22325178    -0.05700
C1187       C  0.84810191  0.42202277  0.21362289    -0.06400
C1188       C  0.82599213  0.43452581  0.20585054    -0.16000
C1189       C  0.80235892  0.42209061  0.20860552    -0.01600
C1190       C  0.80184966  0.39769980  0.21907961    -0.09200
C1191       C  0.87225520  0.38438343  0.22996117     0.65100
H1192       H  0.86607657  0.43147046  0.21114411     0.10600
C1193       C  0.77793146  0.43378233  0.19941253     0.63500
H1194       H  0.78404673  0.38785088  0.22123473     0.07900
F1195       F  0.85854196  0.29879227  0.20245030    -0.19500
F1196       F  0.82149219  0.29832741  0.18173894    -0.15800
F1197       F  0.82889117  0.27110031  0.21352811    -0.19300
F1198       F  0.78667099  0.38089739  0.27709340    -0.22600
F1199       F  0.81328666  0.36039958  0.30307007    -0.24100
F1200       F  0.82808409  0.39027246  0.27772462    -0.18100
F1201       F  0.75770780  0.41732374  0.20116918    -0.20600
F1202       F  0.78020223  0.44092762  0.17447454    -0.21800
F1203       F  0.77251086  0.45445688  0.21383304    -0.18900
F1204       F  0.89283099  0.40034664  0.22783541    -0.19000
F1205       F  0.87599814  0.36438499  0.21396598    -0.22900
F1206       F  0.87147733  0.37570789  0.25448950    -0.24500
C1207       C  0.10001280  0.69838525  0.19603275    -0.11300
C1208       C  0.10495400  0.68856322  0.22011679     0.11300
C1209       C  0.08517290  0.67607240  0.23315008    -0.03100
C1210       C  0.06129514  0.67331808  0.22124548    -0.05800
C1211       C  0.05667039  0.68255015  0.19686875    -0.16600
C1212       C  0.07636174  0.69520449  0.18398050     0.02300
C1213       C  0.13055387  0.69324660  0.23160455     0.12300
C1214       C  0.08935971  0.66544071  0.25938393     0.62900
H1215       H  0.04611990  0.66348425  0.23071373     0.12300
C1216       C  0.07230023  0.70535045  0.15754766     0.55000
H1217       H  0.11505571  0.70845982  0.18660407     0.08100
C1218       C  0.15271356  0.68053815  0.22385983    -0.05700
C1219       C  0.17649089  0.68851412  0.23339707    -0.06400
C1220       C  0.17880223  0.70885914  0.25002827    -0.16000
C1221       C  0.15640543  0.71955726  0.25970731    -0.01600
C1222       C  0.13284930  0.71225577  0.24960552    -0.09200
C1223       C  0.15135576  0.65911060  0.20514948     0.65100
H1224       H  0.19366570  0.67996539  0.22661188     0.10600
C1225       C  0.15597593  0.73942808  0.27986508     0.63500
H1226       H  0.11595705  0.72194180  0.25557733     0.07900
F1227       F  0.06767754  0.68581133  0.14108496    -0.19500
F1228       F  0.09319587  0.71845305  0.14896103    -0.15800
F1229       F  0.05185650  0.72137901  0.15730811    -0.19300
F1230       F  0.09384667  0.68464420  0.27624827    -0.22600
F1231       F  0.10987915  0.64952454  0.25939356    -0.24100
F1232       F  0.06855374  0.65203484  0.26770363    -0.18100
F1233       F  0.14802478  0.76150386  0.26901919    -0.20600
F1234       F  0.17912841  0.74319232  0.29133142    -0.21800
F1235       F  0.13905812  0.73248032  0.29841985    -0.18900
F1236       F  0.17480717  0.64843323  0.20132484    -0.19000
F1237       F  0.14249156  0.66762667  0.18217164    -0.22900
F1238       F  0.13525429  0.64068601  0.21403132    -0.24500
C1239       C  0.19758255  0.37042622  0.78045564    -0.11300
C1240       C  0.20639343  0.37500782  0.80474809     0.11300
C1241       C  0.21808747  0.35542713  0.81844677    -0.03100
C1242       C  0.22295980  0.33245150  0.80606622    -0.05800
C1243       C  0.21550003  0.32821714  0.78085137    -0.16600
C1244       C  0.20156039  0.34762842  0.76808474     0.02300
C1245       C  0.20108732  0.40046066  0.81494365     0.12300
C1246       C  0.22471964  0.35866909  0.84606603     0.62900
H1247       H  0.23272671  0.31765933  0.81605380     0.12300
C1248       C  0.19147358  0.34572267  0.74112501     0.55000
H1249       H  0.18779484  0.38555709  0.77098025     0.08100
C1250       C  0.21590098  0.42165046  0.80832258    -0.05700
C1251       C  0.20668204  0.44588758  0.81350350    -0.06400
C1252       C  0.18277340  0.44970064  0.82425397    -0.16000
C1253       C  0.16777323  0.42812049  0.83057278    -0.01600
C1254       C  0.17756525  0.40405640  0.82609230    -0.09200
C1255       C  0.24096414  0.41859131  0.79495595     0.65100
H1256       H  0.21798369  0.46213849  0.80868184     0.10600
C1257       C  0.14093177  0.42977953  0.84073003     0.63500
H1258       H  0.16629613  0.38754311  0.83008785     0.07900
F1259       F  0.17723433  0.36631724  0.73412034    -0.19500
F1260       F  0.17602397  0.32496835  0.73828804    -0.15800
F1261       F  0.21149393  0.34444368  0.72473105    -0.19300
F1262       F  0.20297043  0.36328977  0.85954492    -0.22600
F1263       F  0.24119839  0.37857980  0.84915936    -0.24100
F1264       F  0.23599083  0.33747237  0.85601685    -0.18100
F1265       F  0.12887170  0.40669667  0.84105502    -0.20600
F1266       F  0.12660029  0.44545690  0.82565072    -0.21800
F1267       F  0.14138205  0.43854953  0.86521729    -0.18900
F1268       F  0.25276615  0.44138269  0.79066446    -0.19000
F1269       F  0.23708491  0.40712982  0.77197866    -0.22900
F1270       F  0.25701439  0.40399839  0.80932139    -0.24500
C1271       C  0.23995864  0.67904202  0.08289505    -0.11300
C1272       C  0.23217552  0.66198733  0.10141123     0.11300
C1273       C  0.21462813  0.64302911  0.09481152    -0.03100
C1274       C  0.20429655  0.64291111  0.07026881    -0.05800
C1275       C  0.20983752  0.66170422  0.05223773    -0.16600
C1276       C  0.22926006  0.67930118  0.05845311     0.02300
C1277       C  0.23645817  0.66953648  0.12815029     0.12300
C1278       C  0.20632404  0.62334530  0.11384303     0.62900
H1279       H  0.19080692  0.62841494  0.06542758     0.12300
C1280       C  0.23811704  0.69908158  0.04019430     0.55000
H1281       H  0.25308748  0.69364848  0.08852817     0.08100
C1282       C  0.25961270  0.66696261  0.14140463    -0.05700
C1283       C  0.26266072  0.67922818  0.16491537    -0.06400
C1284       C  0.24394230  0.69525938  0.17454743    -0.16000
C1285       C  0.22033670  0.69688987  0.16122767    -0.01600
C1286       C  0.21719837  0.68370878  0.13866861    -0.09200
C1287       C  0.28131434  0.65243523  0.13015255     0.65100
H1288       H  0.28064281  0.67826527  0.17468321     0.10600
C1289       C  0.19918244  0.71477624  0.16803433     0.63500
H1290       H  0.20001343  0.68605704  0.12770703     0.07900
F1291       F  0.25740022  0.71380714  0.05002023    -0.19500
F1292       F  0.21817278  0.71464140  0.03435950    -0.15800
F1293       F  0.24725789  0.68752943  0.01886799    -0.19300
F1294       F  0.19537768  0.63451276  0.13450887    -0.22600
F1295       F  0.22702609  0.60972149  0.12173456    -0.24100
F1296       F  0.18883218  0.60678620  0.10369259    -0.18100
F1297       F  0.20494310  0.73858078  0.15940713    -0.20600
F1298       F  0.19573282  0.71536911  0.19356125    -0.21800
F1299       F  0.17631501  0.70754945  0.15741222    -0.18900
F1300       F  0.30194283  0.65154843  0.14627906    -0.19000
F1301       F  0.28891469  0.66364659  0.10794779    -0.22900
F1302       F  0.27373521  0.62814856  0.12519546    -0.24500
C1303       C  0.06664840  0.49209769  0.94270234    -0.11300
C1304       C  0.07000100  0.51160247  0.92534692     0.11300
C1305       C  0.05325157  0.53215935  0.92522735    -0.03100
C1306       C  0.03250654  0.53159283  0.94151326    -0.05800
C1307       C  0.02879785  0.51185761  0.95859583    -0.16600
C1308       C  0.04716201  0.49260914  0.96045494     0.02300
C1309       C  0.09065291  0.50966659  0.90688051     0.12300
C1310       C  0.05711736  0.55450970  0.90788506     0.62900
H1311       H  0.01888289  0.54660588  0.94094284     0.12300
C1312       C  0.04833819  0.47315606  0.98136890     0.55000
H1313       H  0.08010892  0.47684707  0.94305842     0.08100
C1314       C  0.11663904  0.51237582  0.91322334    -0.05700
C1315       C  0.13449029  0.51070567  0.89388105    -0.06400
C1316       C  0.12722282  0.50672059  0.86882380    -0.16000
C1317       C  0.10136436  0.50368441  0.86252983    -0.01600
C1318       C  0.08358090  0.50481498  0.88188001    -0.09200
C1319       C  0.12693690  0.51697247  0.93959409     0.65100
H1320       H  0.15444178  0.51245289  0.89841695     0.10600
C1321       C  0.09122791  0.49919240  0.83607120     0.63500
H1322       H  0.06373905  0.50205044  0.87736606     0.07900
F1323       F  0.07121823  0.47555642  0.99390207    -0.19500
F1324       F  0.04696082  0.44942809  0.97106778    -0.15800
F1325       F  0.02941941  0.47551588  0.99899250    -0.19300
F1326       F  0.05095123  0.54802607  0.88343488    -0.22600
F1327       F  0.08204231  0.56239071  0.90876777    -0.24100
F1328       F  0.04216159  0.57451325  0.91477917    -0.18100
F1329       F  0.07839127  0.47656617  0.83550169    -0.20600
F1330       F  0.10974121  0.49863328  0.81786616    -0.21800
F1331       F  0.07453576  0.51811121  0.82985347    -0.18900
F1332       F  0.14117408  0.53877520  0.93961432    -0.19000
F1333       F  0.14238213  0.49723270  0.94642134    -0.22900
F1334       F  0.10848989  0.51931411  0.95765462    -0.24500
C1335       C  0.04490000  0.59095389  0.99359299    -0.11300
C1336       C  0.06797695  0.58239568  0.00323995     0.11300
C1337       C  0.07045171  0.55697737  0.01036182    -0.03100
C1338       C  0.04956882  0.54083669  0.00726365    -0.05800
C1339       C  0.02644112  0.54926357  0.99730303    -0.16600
C1340       C  0.02424433  0.57471787  0.98976599     0.02300
C1341       C  0.08959384  0.60024982  0.00462154     0.12300
C1342       C  0.09504148  0.54703590  0.02124128     0.62900
H1343       H  0.05104488  0.52136048  0.01272443     0.12300
C1344       C  0.00128779  0.58578014  0.97677934     0.55000
H1345       H  0.04329712  0.61047401  0.98814699     0.08100
C1346       C  0.10474244  0.60545821  0.98338803    -0.05700
C1347       C  0.12582418  0.62127005  0.98631826    -0.06400
C1348       C  0.13174296  0.63281602  0.00944444    -0.16000
C1349       C  0.11565361  0.62866869  0.03036863    -0.01600
C1350       C  0.09498462  0.61208860  0.02760089    -0.09200
C1351       C  0.09848477  0.59460037  0.95766638     0.65100
H1352       H  0.13792723  0.62476679  0.97031774     0.10600
C1353       C  0.11960276  0.64213414  0.05522338     0.63500
H1354       H  0.08292232  0.60803109  0.04348577     0.07900
F1355       F  0.00857498  0.59665480  0.95427407    -0.19500
F1356       F  0.99114824  0.60411383  0.99194611    -0.15800
F1357       F  0.98279734  0.56830204  0.97137285    -0.19300
F1358       F  0.10048835  0.55910959  0.04363470    -0.22600
F1359       F  0.11457877  0.55117037  0.00455261    -0.24100
F1360       F  0.09372102  0.52157270  0.02604882    -0.18100
F1361       F  0.12240839  0.66757848  0.05102830    -0.20600
F1362       F  0.14089793  0.63301856  0.06720800    -0.21800
F1363       F  0.09927871  0.63876320  0.07120347    -0.18900
F1364       F  0.11656653  0.60072031  0.93990860    -0.19000
F1365       F  0.07555507  0.60383907  0.94936230    -0.22900
F1366       F  0.09698222  0.56883568  0.95913381    -0.24500
C1367       C  0.97643686  0.58059889  0.06221034    -0.11300
C1368       C  0.99839942  0.57797636  0.07670264     0.11300
C1369       C  0.01500140  0.55793728  0.07194828    -0.03100
C1370       C  0.00912236  0.54140013  0.05218849    -0.05800
C1371       C  0.98833002  0.54532335  0.03601635    -0.16600
C1372       C  0.97151485  0.56530538  0.04128337     0.02300
C1373       C  0.00333625  0.59671149  0.09668116     0.12300
C1374       C  0.03899856  0.55438135  0.08733552     0.62900
H1375       H  0.02126200  0.52556925  0.04862077     0.12300
C1376       C  0.94841133  0.57192928  0.02579782     0.55000
H1377       H  0.96353338  0.59566486  0.06662947     0.08100
C1378       C  0.01326852  0.62080005  0.09114967    -0.05700
C1379       C  0.01637657  0.63802612  0.11095335    -0.06400
C1380       C  0.00903993  0.63204977  0.13555649    -0.16000
C1381       C  0.99905312  0.60804943  0.14104464    -0.01600
C1382       C  0.99647688  0.59062024  0.12139837    -0.09200
C1383       C  0.01955410  0.62858181  0.06435049     0.65100
H1384       H  0.02353322  0.65670593  0.10721408     0.10600
C1385       C  0.99095287  0.60110809  0.16751474     0.63500
H1386       H  0.98850884  0.57224161  0.12501863     0.07900
F1387       F  0.94869649  0.59725095  0.02021935    -0.19500
F1388       F  0.92705724  0.56671816  0.03973888    -0.15800
F1389       F  0.94705660  0.55918927  0.00339016    -0.19300
F1390       F  0.03295632  0.54978612  0.11220548    -0.22600
F1391       F  0.05385737  0.57571398  0.08599700    -0.24100
F1392       F  0.05314308  0.53446533  0.07868555    -0.18100
F1393       F  0.97138336  0.61639984  0.17494766    -0.20600
F1394       F  0.01112309  0.60409936  0.18393584    -0.21800
F1395       F  0.98270851  0.57650219  0.16903846    -0.18900
F1396       F  0.03120617  0.65184344  0.06351261    -0.19000
F1397       F  0.99762801  0.62980889  0.05014039    -0.22900
F1398       F  0.03561890  0.61141078  0.05358278    -0.24500
C1399       C  0.91167400  0.49888260  0.05659342    -0.11300
C1400       C  0.92413159  0.49183699  0.07870124     0.11300
C1401       C  0.95067331  0.48923531  0.07876440    -0.03100
C1402       C  0.96401693  0.49517135  0.05663135    -0.05800
C1403       C  0.95168951  0.50363371  0.03461214    -0.16600
C1404       C  0.92480213  0.50523069  0.03463075     0.02300
C1405       C  0.90843814  0.48837540  0.10151616     0.12300
C1406       C  0.96464690  0.47978692  0.10191489     0.62900
H1407       H  0.98432878  0.49294083  0.05620519     0.12300
C1408       C  0.90842306  0.51366160  0.01280946     0.55000
H1409       H  0.89121907  0.50023868  0.05678595     0.08100
C1410       C  0.90078062  0.50908719  0.11605902    -0.05700
C1411       C  0.88371135  0.50507247  0.13582362    -0.06400
C1412       C  0.87298409  0.48136375  0.14079044    -0.16000
C1413       C  0.88070252  0.46053013  0.12595745    -0.01600
C1414       C  0.89858871  0.46452328  0.10671341    -0.09200
C1415       C  0.90953542  0.53558412  0.10985317     0.65100
H1416       H  0.87791707  0.52088130  0.14707953     0.10600
C1417       C  0.86957260  0.43443221  0.12933985     0.63500
H1418       H  0.90447596  0.44915826  0.09487580     0.07900
F1419       F  0.89359540  0.53354442  0.02024215    -0.19500
F1420       F  0.89264895  0.49414849  0.00581546    -0.15800
F1421       F  0.92205185  0.52123324  0.99226437    -0.19300
F1422       F  0.95653043  0.45578304  0.10755848    -0.22600
F1423       F  0.96000005  0.49514388  0.12226041    -0.24100
F1424       F  0.99050972  0.47917767  0.09821198    -0.18100
F1425       F  0.84349936  0.43538576  0.12763099    -0.20600
F1426       F  0.87665162  0.42484202  0.15252512    -0.21800
F1427       F  0.87789059  0.41798395  0.11107861    -0.18900
F1428       F  0.90132342  0.55274989  0.12745994    -0.19000
F1429       F  0.90001886  0.54264061  0.08661643    -0.22900
F1430       F  0.93560854  0.53680232  0.10920856    -0.24500
C1431       C  0.92021372  0.43874335  0.97986412    -0.11300
C1432       C  0.92768338  0.42189841  0.99869531     0.11300
C1433       C  0.94911258  0.42736439  0.01371809    -0.03100
C1434       C  0.96118904  0.45065132  0.01063311    -0.05800
C1435       C  0.95297397  0.46831384  0.99268990    -0.16600
C1436       C  0.93252261  0.46185793  0.97633105     0.02300
C1437       C  0.91249026  0.39872949  0.00219735     0.12300
C1438       C  0.95930226  0.40857924  0.03268867     0.62900
H1439       H  0.97762080  0.45519298  0.02202064     0.12300
C1440       C  0.92277271  0.47786517  0.95476479     0.55000
H1441       H  0.90431531  0.43379812  0.96784474     0.08100
C1442       C  0.88964616  0.39880588  0.01596571    -0.05700
C1443       C  0.87549361  0.37649492  0.01756463    -0.06400
C1444       C  0.88335764  0.35452165  0.00557955    -0.16000
C1445       C  0.90659459  0.35421510  0.99255958    -0.01600
C1446       C  0.92071672  0.37655241  0.99082537    -0.09200
C1447       C  0.87991950  0.42253890  0.02823938     0.65100
H1448       H  0.85756812  0.37629323  0.02730862     0.10600
C1449       C  0.91660192  0.33025068  0.98110654     0.63500
H1450       H  0.93816176  0.37699568  0.98026471     0.07900
F1451       F  0.89721858  0.48214950  0.95770713    -0.19500
F1452       F  0.92613238  0.46519600  0.93243482    -0.15800
F1453       F  0.93476442  0.50066663  0.95287305    -0.19300
F1454       F  0.96624131  0.38688018  0.02044231    -0.22600
F1455       F  0.94100446  0.40291367  0.05029388    -0.24100
F1456       F  0.98035794  0.41769799  0.04533788    -0.18100
F1457       F  0.90161038  0.32311080  0.96094073    -0.20600
F1458       F  0.91650536  0.31140296  0.99903682    -0.21800
F1459       F  0.94112506  0.33316275  0.97261795    -0.18900
F1460       F  0.85836937  0.41805194  0.04223108    -0.19000
F1461       F  0.87407376  0.44002046  0.00990405    -0.22900
F1462       F  0.89811720  0.43244033  0.04418520    -0.24500
C1463       C  0.98179280  0.46832332  0.90482431    -0.11300
C1464       C  0.98685676  0.44301104  0.90929283     0.11300
C1465       C  0.99310587  0.43495633  0.93392532    -0.03100
C1466       C  0.99254609  0.45247995  0.95366373    -0.05800
C1467       C  0.98656686  0.47780135  0.94953131    -0.16600
C1468       C  0.98151498  0.48600481  0.92441058     0.02300
C1469       C  0.98606091  0.42545438  0.88762684     0.12300
C1470       C  0.00120933  0.40817137  0.93912708     0.62900
H1471       H  0.99715342  0.44655835  0.97261375     0.12300
C1472       C  0.97505316  0.51268004  0.91674940     0.55000
H1473       H  0.97764061  0.47429767  0.88571103     0.08100
C1474       C  0.96384687  0.41213963  0.88091819    -0.05700
C1475       C  0.96506426  0.39443773  0.86140399    -0.06400
C1476       C  0.98722754  0.39081892  0.84741238    -0.16000
C1477       C  0.00871388  0.40610692  0.85256027    -0.01600
C1478       C  0.00790508  0.42271338  0.87312944    -0.09200
C1479       C  0.93869375  0.41759165  0.89334290     0.65100
H1480       H  0.94845621  0.38344177  0.85669527     0.10600
C1481       C  0.03190275  0.40606030  0.83583500     0.63500
H1482       H  0.02436581  0.43386073  0.87804475     0.07900
F1483       F  0.95210965  0.51272238  0.90411079    -0.19500
F1484       F  0.99341922  0.52165139  0.90060011    -0.15800
F1485       F  0.97316964  0.52894627  0.93677713    -0.19300
F1486       F  0.02303109  0.40313781  0.92592578    -0.22600
F1487       F  0.98255688  0.39153340  0.93166752    -0.24100
F1488       F  0.00603772  0.40412422  0.96446079    -0.18100
F1489       F  0.04760940  0.42629433  0.84081813    -0.20600
F1490       F  0.02468050  0.40750069  0.81078770    -0.21800
F1491       F  0.04563207  0.38448504  0.83976021    -0.18900
F1492       F  0.91964784  0.40193802  0.88460610    -0.19000
F1493       F  0.93186712  0.44197869  0.88796607    -0.22900
F1494       F  0.94042989  0.41457593  0.91914178    -0.24500
C1495       C  0.28376596  0.78539140  0.10753625    -0.11300
C1496       C  0.27779955  0.81053137  0.10395090     0.11300
C1497       C  0.26622398  0.82397128  0.12367413    -0.03100
C1498       C  0.26334109  0.81222284  0.14743890    -0.05800
C1499       C  0.27093995  0.78726974  0.15172326    -0.16600
C1500       C  0.27997285  0.77315104  0.13065843     0.02300
C1501       C  0.28472715  0.82184264  0.07920915     0.12300
C1502       C  0.25664893  0.85037214  0.11936104     0.62900
H1503       H  0.25550423  0.82266296  0.16296791     0.12300
C1504       C  0.28458929  0.74502011  0.13147070     0.55000
H1505       H  0.29181833  0.77540777  0.09178811     0.08100
C1506       C  0.30924692  0.83163263  0.07502482    -0.05700
C1507       C  0.31598796  0.83908788  0.05064480    -0.06400
C1508       C  0.29974508  0.83580080  0.02989837    -0.16000
C1509       C  0.27524863  0.82563307  0.03389349    -0.01600
C1510       C  0.26804550  0.81910316  0.05868953    -0.09200
C1511       C  0.32921598  0.83178496  0.09558493     0.65100
H1512       H  0.33485666  0.84627306  0.04734785     0.10600
C1513       C  0.25683262  0.82169664  0.01229143     0.63500
H1514       H  0.24966785  0.81081951  0.06215520     0.07900
F1515       F  0.30540007  0.73950030  0.14627529    -0.19500
F1516       F  0.28900315  0.73519061  0.10779043    -0.15800
F1517       F  0.26341110  0.73314873  0.14076027    -0.19300
F1518       F  0.23877675  0.85016661  0.10025856    -0.22600
F1519       F  0.27629748  0.86605890  0.11252691    -0.24100
F1520       F  0.24554414  0.86007468  0.14073774    -0.18100
F1521       F  0.26574354  0.80321723  0.99652280    -0.20600
F1522       F  0.25404334  0.84378170  0.99893056    -0.21800
F1523       F  0.23321794  0.81431861  0.02069354    -0.18900
F1524       F  0.35084828  0.84457002  0.08840166    -0.19000
F1525       F  0.33576302  0.80731743  0.10089031    -0.22900
F1526       F  0.32014651  0.84310692  0.11704404    -0.24500
C1527       C  0.43064996  0.84754914  0.20061497    -0.11300
C1528       C  0.42056931  0.82346975  0.20367422     0.11300
C1529       C  0.43642450  0.80247407  0.19960241    -0.03100
C1530       C  0.46167113  0.80635736  0.19164797    -0.05800
C1531       C  0.47137515  0.83050294  0.18722255    -0.16600
C1532       C  0.45583296  0.85153159  0.19293085     0.02300
C1533       C  0.39284663  0.82063357  0.20900808     0.12300
C1534       C  0.42629409  0.77601331  0.20272356     0.62900
H1535       H  0.47346760  0.79047227  0.18723637     0.12300
C1536       C  0.46518260  0.87839407  0.19037146     0.55000
H1537       H  0.41828820  0.86339462  0.20341070     0.08100
C1538       C  0.38240681  0.82251829  0.23345087    -0.05700
C1539       C  0.35686602  0.81526250  0.23723378    -0.06400
C1540       C  0.34128716  0.80739793  0.21710399    -0.16000
C1541       C  0.35104573  0.80914989  0.19233333    -0.01600
C1542       C  0.37667919  0.81545150  0.18875260    -0.09200
C1543       C  0.39825632  0.83215100  0.25525444     0.65100
H1544       H  0.34932617  0.81442117  0.25612870     0.10600
C1545       C  0.33436586  0.80496127  0.16961293     0.63500
H1546       H  0.38465262  0.81551245  0.17001157     0.07900
F1547       F  0.45094994  0.89455757  0.20482547    -0.19500
F1548       F  0.46334274  0.88604337  0.16553051    -0.15800
F1549       F  0.49001228  0.88041052  0.19845390    -0.19300
F1550       F  0.40790419  0.77129912  0.18473021    -0.22600
F1551       F  0.41589872  0.77319098  0.22637844    -0.24100
F1552       F  0.44510517  0.75831794  0.20009325    -0.18100
F1553       F  0.31310300  0.81970663  0.17159525    -0.20600
F1554       F  0.32751533  0.78009906  0.16789926    -0.21800
F1555       F  0.34668201  0.81143344  0.14770853    -0.18900
F1556       F  0.38511069  0.83143720  0.27769856    -0.19000
F1557       F  0.40518013  0.85673149  0.25062737    -0.22900
F1558       F  0.41981751  0.81789075  0.25798987    -0.24500
C1559       C  0.41183711  0.25776965  0.81609251    -0.11300
C1560       C  0.39236636  0.25591724  0.83372274     0.11300
C1561       C  0.39747942  0.24444024  0.85723949    -0.03100
C1562       C  0.42057825  0.23199447  0.86073609    -0.05800
C1563       C  0.43953059  0.23180129  0.84215490    -0.16600
C1564       C  0.43555083  0.24640950  0.81990547     0.02300
C1565       C  0.36602980  0.26059886  0.82462791     0.12300
C1566       C  0.37888198  0.24433230  0.87888020     0.62900
H1567       H  0.42365689  0.22213831  0.87834209     0.12300
C1568       C  0.45560311  0.24996927  0.79987097     0.55000
H1569       H  0.40777225  0.26732904  0.79863894     0.08100
C1570       C  0.35781934  0.28323292  0.81329107    -0.05700
C1571       C  0.33458788  0.28340903  0.80009798    -0.06400
C1572       C  0.31855653  0.26220677  0.79899086    -0.16000
C1573       C  0.32591692  0.24054456  0.81270467    -0.01600
C1574       C  0.34974354  0.23990785  0.82440328    -0.09200
C1575       C  0.37258123  0.30761084  0.81458394     0.65100
H1576       H  0.32914821  0.30040662  0.79032579     0.10600
C1577       C  0.30909462  0.21791429  0.81522288     0.63500
H1578       H  0.35635060  0.22261497  0.83278482     0.07900
F1579       F  0.47633209  0.26183213  0.81042708    -0.19500
F1580       F  0.44737730  0.26484117  0.78013956    -0.15800
F1581       F  0.46240416  0.22707577  0.78991441    -0.19300
F1582       F  0.36894244  0.22051118  0.88182034    -0.22600
F1583       F  0.35930984  0.26104213  0.87517965    -0.24100
F1584       F  0.39125471  0.25109764  0.90088493    -0.18100
F1585       F  0.30794537  0.20538284  0.79247413    -0.20600
F1586       F  0.28525768  0.22548274  0.82253876    -0.21800
F1587       F  0.31804165  0.20137615  0.83330546    -0.18900
F1588       F  0.35687478  0.32644527  0.82295920    -0.19000
F1589       F  0.38113341  0.31379296  0.79080127    -0.22900
F1590       F  0.39299649  0.30646762  0.83089461    -0.24500
C1591       C  0.23556106  0.12701458  0.79817618    -0.11300
C1592       C  0.25792164  0.12160727  0.81150769     0.11300
C1593       C  0.27239394  0.14189839  0.82108014    -0.03100
C1594       C  0.26603932  0.16645895  0.81383981    -0.05800
C1595       C  0.24481862  0.17190560  0.79895570    -0.16600
C1596       C  0.22792020  0.15189303  0.79326714     0.02300
C1597       C  0.26748331  0.09521001  0.81248222     0.12300
C1598       C  0.29546032  0.13877740  0.83794867     0.62900
H1599       H  0.27792176  0.18125772  0.81964819     0.12300
C1600       C  0.20173307  0.15541996  0.78219501     0.55000
H1601       H  0.22417994  0.11175789  0.79091307     0.08100
C1602       C  0.25604690  0.07596960  0.82705073    -0.05700
C1603       C  0.26820846  0.05247523  0.82894431    -0.06400
C1604       C  0.29127756  0.04776447  0.81690297    -0.16000
C1605       C  0.30220025  0.06673547  0.80166670    -0.01600
C1606       C  0.29013428  0.09007366  0.79986751    -0.09200
C1607       C  0.23189288  0.08058127  0.84156897     0.65100
H1608       H  0.26023881  0.03781477  0.84062528     0.10600
C1609       C  0.32672173  0.06382138  0.78724634     0.63500
H1610       H  0.29899349  0.10487022  0.78897427     0.07900
F1611       F  0.18443837  0.14230136  0.79662842    -0.19500
F1612       F  0.20101608  0.14610668  0.75802490    -0.15800
F1613       F  0.19422075  0.18010457  0.78176797    -0.19300
F1614       F  0.31699600  0.14401344  0.82425032    -0.22600
F1615       F  0.29742771  0.11497959  0.84805524    -0.24100
F1616       F  0.29410508  0.15537115  0.85786577    -0.18100
F1617       F  0.32239411  0.06918476  0.76209070    -0.20600
F1618       F  0.33678810  0.04003741  0.78867713    -0.21800
F1619       F  0.34441237  0.08059985  0.79659354    -0.18900
F1620       F  0.22574894  0.06051746  0.85694868    -0.19000
F1621       F  0.21200762  0.08422794  0.82502361    -0.22900
F1622       F  0.23471299  0.10153864  0.85660975    -0.24500
C1623       C  0.71252051  0.20625002  0.13206948    -0.11300
C1624       C  0.70171780  0.22613022  0.11873669     0.11300
C1625       C  0.69723720  0.24898890  0.13142743    -0.03100
C1626       C  0.70403387  0.25114534  0.15720128    -0.05800
C1627       C  0.71514764  0.23124421  0.17071576    -0.16600
C1628       C  0.71993187  0.20832639  0.15753501     0.02300
C1629       C  0.69627508  0.22205135  0.09127350     0.12300
C1630       C  0.68569850  0.27108019  0.11763804     0.62900
H1631       H  0.70071908  0.26855425  0.16702321     0.12300
C1632       C  0.73444961  0.18645134  0.16902895     0.55000
H1633       H  0.71581941  0.18907430  0.12182083     0.08100
C1634       C  0.71570605  0.21916359  0.07313001    -0.05700
C1635       C  0.70947970  0.20987802  0.04897838    -0.06400
C1636       C  0.68449829  0.20396568  0.04201635    -0.16000
C1637       C  0.66481872  0.20939155  0.05933008    -0.01600
C1638       C  0.67118622  0.21749410  0.08386847    -0.09200
C1639       C  0.74329407  0.22543826  0.07804739     0.65100
H1640       H  0.72452349  0.20655405  0.03564194     0.10600
C1641       C  0.63707156  0.20726147  0.05206166     0.63500
H1642       H  0.65649627  0.21947030  0.09781799     0.07900
F1643       F  0.75781297  0.19451544  0.17709495    -0.19500
F1644       F  0.73840571  0.16738680  0.15187774    -0.15800
F1645       F  0.72160496  0.17619668  0.18903462    -0.19300
F1646       F  0.66128464  0.26527147  0.11025390    -0.22600
F1647       F  0.69987686  0.27675178  0.09657135    -0.24100
F1648       F  0.68483049  0.29220306  0.13266396    -0.18100
F1649       F  0.62185519  0.21976143  0.06896822    -0.20600
F1650       F  0.62960933  0.18242128  0.05173927    -0.21800
F1651       F  0.63311000  0.21782094  0.02854576    -0.18900
F1652       F  0.75118562  0.24279364  0.06035820    -0.19000
F1653       F  0.75761495  0.20399252  0.07565744    -0.22900
F1654       F  0.74778302  0.23546922  0.10161327    -0.24500
C1655       C  0.70737505  0.06434570  0.21423959    -0.11300
C1656       C  0.68549977  0.07544650  0.22399883     0.11300
C1657       C  0.66164516  0.06422454  0.21911989    -0.03100
C1658       C  0.66058931  0.04261949  0.20401627    -0.05800
C1659       C  0.68243571  0.03148304  0.19424719    -0.16600
C1660       C  0.70632837  0.04243906  0.19949477     0.02300
C1661       C  0.68876641  0.09973655  0.23734506     0.12300
C1662       C  0.63678033  0.07392860  0.22924056     0.62900
H1663       H  0.64232713  0.03428364  0.19975580     0.12300
C1664       C  0.73047134  0.03179450  0.18868395     0.55000
H1665       H  0.72539039  0.07339311  0.21791826     0.08100
C1666       C  0.70020092  0.10122483  0.26141526    -0.05700
C1667       C  0.70897672  0.12468483  0.27004949    -0.06400
C1668       C  0.70410795  0.14663444  0.25631376    -0.16000
C1669       C  0.68733734  0.14544738  0.23538326    -0.01600
C1670       C  0.68128515  0.12186973  0.22524436    -0.09200
C1671       C  0.70199299  0.07827290  0.27807217     0.65100
H1672       H  0.72034557  0.12585643  0.28704999     0.10600
C1673       C  0.67326514  0.16797430  0.22498856     0.63500
H1674       H  0.67030319  0.12069029  0.20798053     0.07900
F1675       F  0.73469485  0.00822679  0.19856906    -0.19500
F1676       F  0.75130996  0.04658014  0.19434758    -0.15800
F1677       F  0.72843221  0.03021535  0.16275110    -0.19300
F1678       F  0.62164220  0.08136190  0.20929126    -0.22600
F1679       F  0.63955835  0.09388343  0.24554948    -0.24100
F1680       F  0.62463924  0.05486996  0.24214829    -0.18100
F1681       F  0.67577399  0.16929340  0.19915049    -0.20600
F1682       F  0.68128387  0.19038357  0.23536545    -0.21800
F1683       F  0.64787514  0.16510338  0.23034996    -0.18900
F1684       F  0.70872984  0.08468866  0.30241495    -0.19000
F1685       F  0.71956347  0.06176051  0.26863626    -0.22900
F1686       F  0.67868957  0.06646472  0.27906587    -0.24500
C1687       C  0.37789173  0.99611444  0.90498116    -0.11300
C1688       C  0.40085589  0.00694409  0.89734094     0.11300
C1689       C  0.40278759  0.01739572  0.87283047    -0.03100
C1690       C  0.38145627  0.01679926  0.85680610    -0.05800
C1691       C  0.35869868  0.00560422  0.86431430    -0.16600
C1692       C  0.35664677  0.99534926  0.88881744     0.02300
C1693       C  0.42303796  0.00571476  0.91478229     0.12300
C1694       C  0.42745879  0.02855842  0.86342376     0.62900
H1695       H  0.38255918  0.02447795  0.83794273     0.12300
C1696       C  0.33202301  0.98378588  0.89771751     0.55000
H1697       H  0.37689519  0.98787270  0.92360918     0.08100
C1698       C  0.42680889  0.02288224  0.93472842    -0.05700
C1699       C  0.44876333  0.02079584  0.94976477    -0.06400
C1700       C  0.46709014  0.00228506  0.94551839    -0.16000
C1701       C  0.46284935  0.98477878  0.92566559    -0.01600
C1702       C  0.44074614  0.98675201  0.91097430    -0.09200
C1703       C  0.40758972  0.04311894  0.94024529     0.65100
H1704       H  0.45164674  0.03353069  0.96530466     0.10600
C1705       C  0.48076472  0.96394856  0.91831133     0.63500
H1706       H  0.43742738  0.97345076  0.89588411     0.07900
F1707       F  0.33333649  0.97651325  0.92272787    -0.19500
F1708       F  0.32632090  0.96291376  0.88336078    -0.15800
F1709       F  0.31272476  0.00101209  0.89525065    -0.19300
F1710       F  0.44549439  0.01002261  0.86181234    -0.22600
F1711       F  0.43593390  0.04693803  0.87975885    -0.24100
F1712       F  0.42473888  0.03924449  0.83979028    -0.18100
F1713       F  0.46833908  0.94116462  0.92006975    -0.20600
F1714       F  0.50228992  0.96292346  0.93300969    -0.21800
F1715       F  0.48807164  0.96738343  0.89357106    -0.18900
F1716       F  0.41548194  0.05865037  0.95963242    -0.19000
F1717       F  0.38493387  0.03219240  0.94717479    -0.22900
F1718       F  0.40371848  0.05775896  0.91908256    -0.24500
C1719       C  0.38394025  0.92298116  0.96572452    -0.11300
C1720       C  0.39835503  0.92428370  0.98794238     0.11300
C1721       C  0.39051802  0.91076080  0.00945983    -0.03100
C1722       C  0.37015401  0.89401073  0.00712580    -0.05800
C1723       C  0.35705995  0.89085830  0.98423826    -0.16600
C1724       C  0.36318592  0.90649003  0.96345492     0.02300
C1725       C  0.42255524  0.93847663  0.98756320     0.12300
C1726       C  0.40391989  0.91362636  0.03461807     0.62900
H1727       H  0.36487227  0.88255559  0.02311591     0.12300
C1728       C  0.34783430  0.90620827  0.93920098     0.55000
H1729       H  0.38976931  0.93428558  0.94979218     0.08100
C1730       C  0.44462655  0.92821903  0.97683542    -0.05700
C1731       C  0.46684951  0.94273214  0.97663473    -0.06400
C1732       C  0.46771170  0.96694038  0.98672292    -0.16000
C1733       C  0.44595205  0.97654476  0.99888622    -0.01600
C1734       C  0.42357210  0.96226726  0.99854321    -0.09200
C1735       C  0.44460632  0.90216512  0.96535822     0.65100
H1736       H  0.48349952  0.93560519  0.96760979     0.10600
C1737       C  0.44511273  0.00124950  0.01297849     0.63500
H1738       H  0.40664827  0.96977833  0.00702528     0.07900
F1739       F  0.35400409  0.92622153  0.92376023    -0.19500
F1740       F  0.32236051  0.90778674  0.94465599    -0.15800
F1741       F  0.35235384  0.88444244  0.92598150    -0.19300
F1742       F  0.40120769  0.93784953  0.04325212    -0.22600
F1743       F  0.42922655  0.90852906  0.03187321    -0.24100
F1744       F  0.39430736  0.89753237  0.05270684    -0.18100
F1745       F  0.42621508  0.01607907  0.00290981    -0.20600
F1746       F  0.46753962  0.01455999  0.01224075    -0.21800
F1747       F  0.43954093  0.99649284  0.03795677    -0.18900
F1748       F  0.46842598  0.89522989  0.95742166    -0.19000
F1749       F  0.42859493  0.90146563  0.94471335    -0.22900
F1750       F  0.43656866  0.88478068  0.98294935    -0.24500
C1751       C  0.58661970  0.06303841  0.96926081    -0.11300
C1752       C  0.58283701  0.08045707  0.98848288     0.11300
C1753       C  0.56085808  0.07873465  0.00342314    -0.03100
C1754       C  0.54412491  0.05847476  0.99949956    -0.05800
C1755       C  0.54828197  0.04037699  0.98076554    -0.16600
C1756       C  0.56971447  0.04310185  0.96491260     0.02300
C1757       C  0.60171309  0.10100535  0.99140378     0.12300
C1758       C  0.55476878  0.09859574  0.02285805     0.62900
H1759       H  0.52739644  0.05666322  0.01099084     0.12300
C1760       C  0.57579490  0.02635259  0.94282950     0.55000
H1761       H  0.60308465  0.06513851  0.95735261     0.08100
C1762       C  0.62388903  0.09826727  0.00624541    -0.05700
C1763       C  0.64130920  0.11831615  0.00734180    -0.06400
C1764       C  0.63770493  0.14026601  0.99322371    -0.16000
C1765       C  0.61567944  0.14285376  0.97816291    -0.01600
C1766       C  0.59794204  0.12311111  0.97761438    -0.09200
C1767       C  0.62961958  0.07392134  0.01995150     0.61500
H1768       H  0.65839548  0.11667586  0.01854438     0.10600
C1769       C  0.61074505  0.16655306  0.96311560     0.63500
H1770       H  0.58107270  0.12457471  0.96606958     0.07900
F1771       F  0.59998638  0.01706351  0.94552975    -0.19500
F1772       F  0.57482611  0.04037339  0.92093869    -0.15800
F1773       F  0.55946294  0.00640340  0.94039291    -0.19300
F1774       F  0.55142729  0.12139491  0.01094785    -0.22600
F1775       F  0.57424544  0.10079877  0.04015982    -0.24100
F1776       F  0.53289281  0.09292391  0.03589678    -0.18100
F1777       F  0.62873852  0.16925826  0.94453449    -0.20600
F1778       F  0.61170725  0.18709943  0.97891354    -0.21800
F1779       F  0.58723052  0.16609297  0.95159748    -0.18900
F1780       F  0.65128325  0.07580987  0.03458671    -0.19000
F1781       F  0.63310408  0.05501440  0.00259901    -0.22900
F1782       F  0.60985999  0.06740106  0.03555047    -0.24500
C1783       C  0.49856975  0.07087219  0.91195497    -0.11300
C1784       C  0.48940938  0.09043447  0.92675023     0.11300
C1785       C  0.48507032  0.08648909  0.95263720    -0.03100
C1786       C  0.49278624  0.06371082  0.96346788    -0.05800
C1787       C  0.50300584  0.04425933  0.94891542    -0.16600
C1788       C  0.50493372  0.04755322  0.92240208     0.02300
C1789       C  0.48565354  0.11512566  0.91458289     0.12300
C1790       C  0.47124066  0.10575888  0.96830086     0.62900
H1791       H  0.48986635  0.06041199  0.98336870     0.12300
C1792       C  0.51295403  0.02758189  0.90395340     0.55000
H1793       H  0.50089265  0.07395551  0.89189801     0.08100
C1794       C  0.50561132  0.13274526  0.91332029    -0.05700
C1795       C  0.50162230  0.15514251  0.90009833    -0.06400
C1796       C  0.47925099  0.15963557  0.88646140    -0.16000
C1797       C  0.45906753  0.14205851  0.88796635    -0.01600
C1798       C  0.46261193  0.12008116  0.90237734    -0.09200
C1799       C  0.53155724  0.12724900  0.92450849     0.65100
H1800       H  0.51665577  0.16892353  0.89917000     0.10600
C1801       C  0.43444012  0.14579464  0.87367704     0.63500
H1802       H  0.44777425  0.10607947  0.90349953     0.07900
F1803       F  0.53358033  0.03600073  0.89044425    -0.19500
F1804       F  0.49330507  0.02293937  0.88730001    -0.15800
F1805       F  0.51933206  0.00537863  0.91536282    -0.19300
F1806       F  0.44744422  0.10955590  0.95813506    -0.22600
F1807       F  0.48422572  0.12826457  0.96842228    -0.24100
F1808       F  0.46839360  0.09796685  0.99300671    -0.18100
F1809       F  0.41816088  0.12561519  0.87656032    -0.20600
F1810       F  0.43921182  0.14861452  0.84824081    -0.21800
F1811       F  0.42237686  0.16688462  0.88255362    -0.18900
F1812       F  0.54823374  0.14695675  0.92089862    -0.19000
F1813       F  0.54161641  0.10632012  0.91312013    -0.22900
F1814       F  0.52979999  0.12290863  0.95008711    -0.24500
C1815       C  0.52971148  0.91133484  0.09924340    -0.11300
C1816       C  0.51243142  0.90772810  0.07950980     0.11300
C1817       C  0.49671235  0.88606899  0.07972617    -0.03100
C1818       C  0.49917120  0.86892922  0.09973950    -0.05800
C1819       C  0.51621187  0.87293245  0.11967862    -0.16600
C1820       C  0.53095499  0.89513862  0.12004566     0.02300
C1821       C  0.51218153  0.92667910  0.05889332     0.12300
C1822       C  0.47690068  0.87998252  0.05986884     0.62900
H1823       H  0.48743698  0.85220606  0.09988629     0.12300
C1824       C  0.54716773  0.90358087  0.14213053     0.55000
H1825       H  0.54173127  0.92767503  0.09886465     0.08100
C1826       C  0.50209738  0.95102128  0.06200924    -0.05700
C1827       C  0.50267925  0.96774129  0.04149548    -0.06400
C1828       C  0.51273284  0.96094677  0.01809932    -0.16000
C1829       C  0.52224946  0.93629738  0.01488656    -0.01600
C1830       C  0.52243075  0.91992514  0.03563517    -0.09200
C1831       C  0.49038958  0.95923849  0.08667611     0.65100
H1832       H  0.49519998  0.98644277  0.04353125     0.10600
C1833       C  0.53165420  0.92560083  0.99025807     0.63500
H1834       H  0.52994680  0.90119572  0.03345399     0.07900
F1835       F  0.54125323  0.92805729  0.14813163    -0.19500
F1836       F  0.57233278  0.90258849  0.13538097    -0.15800
F1837       F  0.54350335  0.88941234  0.16359203    -0.19300
F1838       F  0.48243598  0.85715823  0.04900871    -0.22600
F1839       F  0.47541314  0.89763369  0.04095238    -0.24100
F1840       F  0.45348293  0.87828726  0.07121257    -0.18100
F1841       F  0.55625938  0.91758452  0.99327876    -0.20600
F1842       F  0.53084684  0.94246668  0.97060028    -0.21800
F1843       F  0.51692166  0.90510484  0.98378837    -0.18900
F1844       F  0.47974173  0.98280983  0.08479334    -0.19000
F1845       F  0.50859792  0.96015243  0.10540301    -0.22900
F1846       F  0.47159371  0.94253536  0.09355681    -0.24500
C1847       C  0.62141196  0.02002096  0.08400453    -0.11300
C1848       C  0.60410916  0.00045998  0.07978696     0.11300
C1849       C  0.60524429  0.97881434  0.09524033    -0.03100
C1850       C  0.62386199  0.97739475  0.11413764    -0.05800
C1851       C  0.64075773  0.99713369  0.11894834    -0.16600
C1852       C  0.63953447  0.01899421  0.10361854     0.02300
C1853       C  0.58638753  0.00235950  0.05798102     0.12300
C1854       C  0.58711510  0.95683196  0.09330687     0.62900
H1855       H  0.62456562  0.96084350  0.12592444     0.12300
C1856       C  0.65749398  0.04096267  0.10742005     0.55000
H1857       H  0.62047927  0.03624931  0.07181703     0.08100
C1858       C  0.56271025  0.01436509  0.05960551    -0.05700
C1859       C  0.54574419  0.01255219  0.03911147    -0.06400
C1860       C  0.55184750  0.99960703  0.01691328    -0.16000
C1861       C  0.57613730  0.98842274  0.01512252    -0.01600
C1862       C  0.59286047  0.99003998  0.03574869    -0.09200
C1863       C  0.55541708  0.02873702  0.08302080     0.65100
H1864       H  0.52733282  0.02119623  0.04028240     0.10600
C1865       C  0.58586371  0.97441378  0.99250483     0.63500
H1866       H  0.61114961  0.98102476  0.03472299     0.07900
F1867       F  0.65585768  0.05810931  0.08789628    -0.19500
F1868       F  0.68216006  0.03256714  0.10860524    -0.15800
F1869       F  0.65165039  0.05329327  0.12948111    -0.19300
F1870       F  0.60026694  0.93570814  0.08620242    -0.22600
F1871       F  0.56759480  0.96051339  0.07633864    -0.24100
F1872       F  0.57663634  0.95271081  0.11674055    -0.18100
F1873       F  0.60730059  0.98634152  0.98368859    -0.20600
F1874       F  0.56853343  0.97285899  0.97318338    -0.21800
F1875       F  0.59241632  0.95040293  0.99967388    -0.18900
F1876       F  0.53138477  0.03868815  0.08100610    -0.19000
F1877       F  0.57225650  0.04827790  0.08678091    -0.22900
F1878       F  0.55598490  0.01301033  0.10373999    -0.24500
C1879       C  0.78950958  0.90723525  0.30195979    -0.11300
C1880       C  0.77596427  0.89583335  0.32158649     0.11300
C1881       C  0.77270074  0.90865037  0.34458509    -0.03100
C1882       C  0.78274228  0.93298465  0.34687871    -0.05800
C1883       C  0.79622452  0.94449942  0.32720587    -0.16600
C1884       C  0.79975611  0.93147620  0.30433482     0.02300
C1885       C  0.76563941  0.87036924  0.31704526     0.12300
C1886       C  0.75940725  0.89645693  0.36678952     0.62900
H1887       H  0.78092656  0.94298317  0.36449891     0.12300
C1888       C  0.81510917  0.94265073  0.28298791     0.55000
H1889       H  0.79203899  0.89680638  0.28468636     0.08100
C1890       C  0.74412762  0.86660067  0.30153872    -0.05700
C1891       C  0.73840310  0.84217263  0.29350695    -0.06400
C1892       C  0.75291765  0.82161148  0.30132347    -0.16000
C1893       C  0.77193724  0.82502642  0.31986149    -0.01600
C1894       C  0.77887972  0.84959742  0.32647318    -0.09200
C1895       C  0.72755708  0.88831718  0.29326501     0.65100
H1896       H  0.72335819  0.83914935  0.27991098     0.10600
C1897       C  0.78425466  0.80360311  0.33412161     0.63500
H1898       H  0.79485323  0.85257496  0.33900334     0.07900
F1899       F  0.80327763  0.96388572  0.27391880    -0.19500
F1900       F  0.81765980  0.92606794  0.26317011    -0.15800
F1901       F  0.83906723  0.94889168  0.29154686    -0.19300
F1902       F  0.77297054  0.87590390  0.37494211    -0.22600
F1903       F  0.73540405  0.88875899  0.35984702    -0.24100
F1904       F  0.75718219  0.91276106  0.38687991    -0.18100
F1905       F  0.80994059  0.80349514  0.32976387    -0.20600
F1906       F  0.77432946  0.78046624  0.32768832    -0.21800
F1907       F  0.78041050  0.80696056  0.35963693    -0.18900
F1908       F  0.70701902  0.88027591  0.27916284    -0.19000
F1909       F  0.74121660  0.90504373  0.27886855    -0.22900
F1910       F  0.71849518  0.90067298  0.31414018    -0.24500
C1911       C  0.75554855  0.86353321  0.18523653    -0.11300
C1912       C  0.73181131  0.87222629  0.19284630     0.11300
C1913       C  0.71755424  0.85769577  0.21009559    -0.03100
C1914       C  0.72791903  0.83530984  0.21960652    -0.05800
C1915       C  0.75213907  0.82694127  0.21292769    -0.16600
C1916       C  0.76628283  0.84141237  0.19530630     0.02300
C1917       C  0.72256089  0.89705259  0.18335482     0.12300
C1918       C  0.69156274  0.86595543  0.21875303     0.62900
H1919       H  0.71726432  0.82443292  0.23305369     0.12300
C1920       C  0.79260918  0.83392783  0.18714824     0.55000
H1921       H  0.76591932  0.87466972  0.17169586     0.08100
C1922       C  0.73177503  0.92006036  0.19301245    -0.05700
C1923       C  0.71959320  0.94250218  0.18599926    -0.06400
C1924       C  0.69877310  0.94301495  0.16924689    -0.16000
C1925       C  0.69061847  0.91976026  0.15839409    -0.01600
C1926       C  0.70291479  0.89739212  0.16560677    -0.09200
C1927       C  0.75452679  0.92091933  0.21057175     0.65100
H1928       H  0.72649363  0.95998370  0.19368144     0.10600
C1929       C  0.66858420  0.91778851  0.13998378     0.63500
H1930       H  0.69682354  0.87958214  0.15791809     0.07900
F1931       F  0.80922494  0.83642369  0.20719277    -0.19500
F1932       F  0.80144816  0.84885043  0.16771205    -0.15800
F1933       F  0.79241175  0.80939886  0.17882238    -0.19300
F1934       F  0.67474944  0.86522146  0.19875604    -0.22600
F1935       F  0.69280442  0.89009376  0.22808062    -0.24100
F1936       F  0.68213346  0.85059170  0.23755202    -0.18100
F1937       F  0.66344037  0.89324770  0.13320613    -0.20600
F1938       F  0.67408442  0.93080117  0.11812588    -0.21800
F1939       F  0.64702893  0.92723928  0.15095211    -0.18900
F1940       F  0.77587971  0.91375808  0.19764386    -0.19000
F1941       F  0.75092094  0.90483830  0.23063034    -0.22900
F1942       F  0.75877271  0.94469989  0.22009030    -0.24500
C1943       C  0.88214063  0.74636034  0.19542748    -0.11300
C1944       C  0.88662692  0.72238270  0.18598934     0.11300
C1945       C  0.86567064  0.70639072  0.18098524    -0.03100
C1946       C  0.84108856  0.71441561  0.18761871    -0.05800
C1947       C  0.83694969  0.73751697  0.19953915    -0.16600
C1948       C  0.85768705  0.75444744  0.20158133     0.02300
C1949       C  0.91352403  0.71401179  0.18371703     0.12300
C1950       C  0.86943281  0.68043253  0.17005435     0.62900
H1951       H  0.82519806  0.70168032  0.18573287     0.12300
C1952       C  0.85544055  0.78084981  0.21134191     0.55000
H1953       H  0.89811887  0.75871346  0.19888257     0.08100
C1954       C  0.92891483  0.72040198  0.16287848    -0.05700
C1955       C  0.95384356  0.71105484  0.16193297    -0.06400
C1956       C  0.96417083  0.69657668  0.18157894    -0.16000
C1957       C  0.94921635  0.69133627  0.20298223    -0.01600
C1958       C  0.92411868  0.70021156  0.20371034    -0.09200
C1959       C  0.91914200  0.73720845  0.14190161     0.65100
H1960       H  0.96547820  0.71474487  0.14561651     0.10600
C1961       C  0.95957456  0.67572786  0.22454378     0.63500
H1962       H  0.91233456  0.69612673  0.21982589     0.07900
F1963       F  0.86733647  0.79720537  0.19493764    -0.19500
F1964       F  0.86707145  0.78240787  0.23463639    -0.15800
F1965       F  0.83070693  0.78830040  0.21334200    -0.19300
F1966       F  0.88315397  0.66588269  0.18673042    -0.22600
F1967       F  0.88238970  0.68209937  0.14759506    -0.24100
F1968       F  0.84662926  0.66844864  0.16535141    -0.18100
F1969       F  0.94201038  0.67252363  0.24350651    -0.20600
F1970       F  0.98061993  0.68745421  0.23472505    -0.21800
F1971       F  0.96632445  0.65231769  0.21585543    -0.18900
F1972       F  0.93648240  0.73972786  0.12263231    -0.19000
F1973       F  0.91433795  0.76078141  0.15138502    -0.22900
F1974       F  0.89709107  0.72746652  0.13177739    -0.24500
C1975       C  0.88150497  0.79717480  0.29578751    -0.11300
C1976       C  0.89707358  0.77766249  0.30417897     0.11300
C1977       C  0.88628103  0.75353627  0.30768640    -0.03100
C1978       C  0.86052040  0.74960506  0.30137334    -0.05800
C1979       C  0.84511066  0.76893432  0.29186253    -0.16600
C1980       C  0.85574067  0.79348880  0.28984006     0.02300
C1981       C  0.92408529  0.78381112  0.31067905     0.12300
C1982       C  0.90206552  0.73188467  0.31748143     0.62900
H1983       H  0.85248553  0.73096906  0.30280038     0.12300
C1984       C  0.84121506  0.81676432  0.28195925     0.55000
H1985       H  0.88963336  0.81578398  0.29403866     0.08100
C1986       C  0.94297088  0.78771154  0.29216503    -0.05700
C1987       C  0.96716568  0.79653142  0.29970631    -0.06400
C1988       C  0.97301101  0.80175181  0.32505464    -0.16000
C1989       C  0.95453256  0.79599053  0.34370498    -0.01600
C1990       C  0.93032672  0.78771164  0.33604241    -0.09200
C1991       C  0.93734797  0.78327245  0.26446143     0.65100
H1992       H  0.98129967  0.80065853  0.28561905     0.10600
C1993       C  0.95994021  0.79833091  0.37177216     0.63500
H1994       H  0.91568496  0.78488007  0.34994471     0.07900
F1995       F  0.84501566  0.83535653  0.29972598    -0.19500
F1996       F  0.81552947  0.81294415  0.27990851    -0.15800
F1997       F  0.85014171  0.82527103  0.25905366    -0.19300
F1998       F  0.91042729  0.73694495  0.34164710    -0.22600
F1999       F  0.92271036  0.72834584  0.30209933    -0.24100
F2000       F  0.88839263  0.70971931  0.31816849    -0.18100
F2001       F  0.94253022  0.78497820  0.38589523    -0.20600
F2002       F  0.95870667  0.82314890  0.37900724    -0.21800
F2003       F  0.98362539  0.78891205  0.37739574    -0.18900
F2004       F  0.95878890  0.78590570  0.24986295    -0.19000
F2005       F  0.91965185  0.80032058  0.25600934    -0.22900
F2006       F  0.92799751  0.75929747  0.26099437    -0.24500
C2007       C  0.74708612  0.63187362  0.33524734    -0.11300
C2008       C  0.74994983  0.61061913  0.31989598     0.11300
C2009       C  0.76160705  0.61326028  0.29613260    -0.03100
C2010       C  0.76678017  0.63733889  0.28713289    -0.05800
C2011       C  0.76178800  0.65881024  0.30136177    -0.16600
C2012       C  0.75367287  0.65610807  0.32658136     0.02300
C2013       C  0.73639227  0.58715898  0.32669506     0.12300
C2014       C  0.76772397  0.59165350  0.27876706     0.62900
H2015       H  0.77381434  0.63943700  0.26809449     0.12300
C2016       C  0.75112631  0.67858017  0.34374299     0.55000
H2017       H  0.73847897  0.62948391  0.35354823     0.08100
C2018       C  0.74690105  0.56870676  0.34271027    -0.05700
C2019       C  0.73366756  0.54594585  0.34606890    -0.06400
C2020       C  0.71026123  0.54152878  0.33423024    -0.16000
C2021       C  0.69963678  0.56019223  0.31843364    -0.01600
C2022       C  0.71302725  0.58272159  0.31488178    -0.09200
C2023       C  0.77209464  0.57305966  0.35574033     0.65100
H2024       H  0.74135266  0.53149804  0.35819552     0.10600
C2025       C  0.67462483  0.55607598  0.30481849     0.63500
H2026       H  0.70549776  0.59710101  0.30256133     0.07900
F2027       F  0.77446713  0.68999803  0.34662737    -0.19500
F2028       F  0.74249308  0.67177689  0.36736106    -0.15800
F2029       F  0.73437928  0.69561219  0.33358572    -0.19300
F2030       F  0.75244458  0.59311375  0.25763184    -0.22600
F2031       F  0.76438561  0.56841685  0.28976782    -0.24100
F2032       F  0.79273044  0.59355676  0.27148024    -0.18100
F2033       F  0.66911517  0.57551076  0.28840314    -0.20600
F2034       F  0.65523053  0.55443381  0.32206538    -0.21800
F2035       F  0.67554962  0.53416744  0.29100775    -0.18900
F2036       F  0.77926496  0.55263818  0.37015626    -0.19000
F2037       F  0.77044666  0.59361648  0.37141415    -0.22900
F2038       F  0.79063218  0.57743484  0.33799842    -0.24500
C2039       C  0.80811840  0.61643899  0.21037713    -0.11300
C2040       C  0.78740051  0.60371260  0.20003855     0.11300
C2041       C  0.76425416  0.61659521  0.19692501    -0.03100
C2042       C  0.76333610  0.64255186  0.20257058    -0.05800
C2043       C  0.78405436  0.65540919  0.21347627    -0.16600
C2044       C  0.80681245  0.64161732  0.21805162     0.02300
C2045       C  0.79103620  0.57653568  0.19411052     0.12300
C2046       C  0.74021345  0.60255160  0.18984142     0.62900
H2047       H  0.74568390  0.65249848  0.20041093     0.12300
C2048       C  0.82934711  0.65211699  0.23267034     0.55000
H2049       H  0.82524639  0.60583016  0.21352824     0.08100
C2050       C  0.80069076  0.56867067  0.17066148    -0.05700
C2051       C  0.80767898  0.54340145  0.16768033    -0.06400
C2052       C  0.80775088  0.52604191  0.18784968    -0.16000
C2053       C  0.79860500  0.53425031  0.21160372    -0.01600
C2054       C  0.78973592  0.55912356  0.21395608    -0.09200
C2055       C  0.80525541  0.58723387  0.14933000     0.65100
H2056       H  0.81456789  0.53737074  0.14954722     0.10600
C2057       C  0.79948555  0.51771013  0.23485626     0.63500
H2058       H  0.78306431  0.56571368  0.23191470     0.07900
F2059       F  0.85063440  0.63738868  0.23007004    -0.19500
F2060       F  0.82366497  0.65307453  0.25803876    -0.15800
F2061       F  0.83552647  0.67575179  0.22423560    -0.19300
F2062       F  0.73470971  0.58515441  0.20835502    -0.22600
F2063       F  0.74305538  0.59013951  0.16728845    -0.24100
F2064       F  0.71979726  0.61850352  0.18745904    -0.18100
F2065       F  0.79228563  0.53041848  0.25632574    -0.20600
F2066       F  0.82378922  0.50906161  0.23877467    -0.21800
F2067       F  0.78316775  0.49774586  0.23178133    -0.18900
F2068       F  0.81609143  0.57593796  0.12862002    -0.19000
F2069       F  0.82143043  0.60604445  0.15734733    -0.22900
F2070       F  0.78277184  0.59781824  0.14161648    -0.24500
C2071       C  0.60889969  0.80176306  0.16696541    -0.11300
C2072       C  0.60722254  0.77993768  0.18146101     0.11300
C2073       C  0.58292964  0.77220480  0.18987944    -0.03100
C2074       C  0.56141329  0.78662614  0.18344357    -0.05800
C2075       C  0.56297424  0.80897805  0.16932368    -0.16600
C2076       C  0.58763470  0.81660882  0.16089737     0.02300
C2077       C  0.63162392  0.76991967  0.19214783     0.12300
C2078       C  0.57843652  0.74923943  0.20612227     0.62900
H2079       H  0.54307791  0.78036247  0.18999598     0.12300
C2080       C  0.59254910  0.84114871  0.14715379     0.55000
H2081       H  0.62764730  0.80787260  0.16157693     0.08100
C2082       C  0.64907342  0.75491805  0.17879313    -0.05700
C2083       C  0.67246693  0.74820331  0.19041537    -0.06400
C2084       C  0.67916908  0.75631568  0.21487816    -0.16000
C2085       C  0.66105705  0.77168193  0.22799987    -0.01600
C2086       C  0.63802883  0.77790006  0.21623738    -0.09200
C2087       C  0.64265782  0.74585228  0.15252447     0.65100
H2088       H  0.68572776  0.73662722  0.18034729     0.10600
C2089       C  0.66496621  0.78189144  0.25453333     0.63500
H2090       H  0.62444821  0.78960345  0.22575031     0.07900
F2091       F  0.58120635  0.84084579  0.12363352    -0.19500
F2092       F  0.61805439  0.84570962  0.14348792    -0.15800
F2093       F  0.58339263  0.86061769  0.16139932    -0.19300
F2094       F  0.56799373  0.75663503  0.22870791    -0.22600
F2095       F  0.60017238  0.73588179  0.21121764    -0.24100
F2096       F  0.56160897  0.73340047  0.19396053    -0.18100
F2097       F  0.68575027  0.79756277  0.25513178    -0.20600
F2098       F  0.66799327  0.76227938  0.27115110    -0.21800
F2099       F  0.64466191  0.79574755  0.26298861    -0.18900
F2100       F  0.66138760  0.73068499  0.14291009    -0.19000
F2101       F  0.63973657  0.76610195  0.13652455    -0.22900
F2102       F  0.62034976  0.73225881  0.15308667    -0.24500
C2103       C  0.65098748  0.69844743  0.31409331    -0.11300
C2104       C  0.64012650  0.72010982  0.32374216     0.11300
C2105       C  0.65530494  0.74181170  0.32700895    -0.03100
C2106       C  0.68064087  0.74145598  0.31849642    -0.05800
C2107       C  0.69042999  0.72070054  0.30548589    -0.16600
C2108       C  0.67545924  0.69835794  0.30415980     0.02300
C2109       C  0.61259015  0.71860994  0.32950266     0.12300
C2110       C  0.64441824  0.76546970  0.33824464     0.62900
H2111       H  0.69204893  0.75831559  0.31960958     0.12300
C2112       C  0.68398181  0.67460946  0.29102811     0.55000
H2113       H  0.63917135  0.68186904  0.31260310     0.08100
C2114       C  0.59416345  0.71738929  0.31000532    -0.05700
C2115       C  0.56956979  0.70895584  0.31578882    -0.06400
C2116       C  0.56289932  0.70131617  0.34021440    -0.16000
C2117       C  0.58079824  0.70481901  0.36011676    -0.01600
C2118       C  0.60542828  0.71311343  0.35425046    -0.09200
C2119       C  0.60074849  0.72364397  0.28287231     0.65100
H2120       H  0.55587869  0.70656628  0.30077039     0.10600
C2121       C  0.57460307  0.69929470  0.38747098     0.63500
H2122       H  0.61981412  0.71378868  0.36883704     0.07900
F2123       F  0.66950375  0.65405422  0.29793708    -0.19500
F2124       F  0.70854115  0.66935620  0.29746415    -0.15800
F2125       F  0.68193378  0.67735684  0.26520859    -0.19300
F2126       F  0.63655685  0.76080863  0.36258218    -0.22600
F2127       F  0.62399122  0.77337826  0.32402380    -0.24100
F2128       F  0.66201399  0.78474292  0.33894026    -0.18100
F2129       F  0.59183513  0.71056311  0.40364706    -0.20600
F2130       F  0.57527939  0.67375324  0.39174405    -0.21800
F2131       F  0.55092398  0.70840001  0.39328703    -0.18900
F2132       F  0.57943212  0.72425902  0.26767752    -0.19000
F2133       F  0.61687740  0.70583095  0.27328409    -0.22900
F2134       F  0.61231493  0.74687117  0.28160984    -0.24500
C2135       C  0.85094918  0.33551080  0.73513322    -0.11300
C2136       C  0.86079958  0.33610132  0.75975499     0.11300
C2137       C  0.84407461  0.33348950  0.78027654    -0.03100
C2138       C  0.81947013  0.32476534  0.77561448    -0.05800
C2139       C  0.81077656  0.31997165  0.75112631    -0.16600
C2140       C  0.82548091  0.32864886  0.73042899     0.02300
C2141       C  0.88849743  0.33938814  0.76400488     0.12300
C2142       C  0.85229505  0.33955939  0.80697855     0.62900
H2143       H  0.80728346  0.32010520  0.79123178     0.12300
C2144       C  0.81472686  0.33090066  0.70381765     0.55000
H2145       H  0.86351347  0.33975153  0.71966147     0.08100
C2146       C  0.90474628  0.31868536  0.76798364    -0.05700
C2147       C  0.92961844  0.32309288  0.77681161    -0.06400
C2148       C  0.93868989  0.34747403  0.78140453    -0.16000
C2149       C  0.92308014  0.36818376  0.77468884    -0.01600
C2150       C  0.89815789  0.36367417  0.76634351    -0.09200
C2151       C  0.89569088  0.29209806  0.76299956     0.65100
H2152       H  0.94176447  0.30742502  0.78127390     0.10600
C2153       C  0.93217555  0.39514205  0.77652360     0.63500
H2154       H  0.88555805  0.37921571  0.76270653     0.07900
F2155       F  0.80820919  0.30779341  0.69403121    -0.19500
F2156       F  0.83194446  0.34185447  0.68756152    -0.15800
F2157       F  0.79347834  0.34585173  0.70424631    -0.19300
F2158       F  0.86027739  0.36421829  0.80811989    -0.22600
F2159       F  0.87186036  0.32412483  0.81435013    -0.24100
F2160       F  0.83270497  0.33660405  0.82388541    -0.18100
F2161       F  0.91730003  0.41096798  0.76208224    -0.20600
F2162       F  0.95669469  0.39720942  0.76784847    -0.21800
F2163       F  0.93109068  0.40312071  0.80124115    -0.18900
F2164       F  0.91443489  0.27468366  0.76770073    -0.19000
F2165       F  0.88851877  0.28995669  0.73803606    -0.22900
F2166       F  0.87527464  0.28630777  0.77809256    -0.24500
C2167       C  0.87649608  0.22644099  0.71622655    -0.11300
C2168       C  0.88345164  0.20608143  0.73113251     0.11300
C2169       C  0.86758968  0.19827149  0.75095625    -0.03100
C2170       C  0.84374390  0.20980469  0.75355393    -0.05800
C2171       C  0.83555362  0.22910101  0.73714995    -0.16600
C2172       C  0.85293733  0.23812787  0.71868413     0.02300
C2173       C  0.90661890  0.19242055  0.72370138     0.12300
C2174       C  0.87604346  0.17795538  0.76916157     0.62900
H2175       H  0.83115444  0.20339787  0.76822775     0.12300
C2176       C  0.84729088  0.26010051  0.70157550     0.55000
H2177       H  0.88951064  0.23238873  0.70169483     0.08100
C2178       C  0.90582622  0.17476363  0.70389282    -0.05700
C2179       C  0.92861253  0.16486622  0.69508164    -0.06400
C2180       C  0.95222635  0.17269633  0.70459374    -0.16000
C2181       C  0.95300741  0.19021763  0.72475939    -0.01600
C2182       C  0.92999619  0.19970221  0.73402272    -0.09200
C2183       C  0.88105993  0.16735989  0.69114051     0.65100
H2184       H  0.92810383  0.15172267  0.67959753     0.10600
C2185       C  0.97774676  0.19913512  0.73643466     0.63500
H2186       H  0.93007819  0.21371356  0.74874047     0.07900
F2187       F  0.82740256  0.25428593  0.68558466    -0.19500
F2188       F  0.86775573  0.26685290  0.68685541    -0.15800
F2189       F  0.84146928  0.28040358  0.71627905    -0.19300
F2190       F  0.89814895  0.18537613  0.78107494    -0.22600
F2191       F  0.88043410  0.15590635  0.75636604    -0.24100
F2192       F  0.85810334  0.17322966  0.78744384    -0.18100
F2193       F  0.99036565  0.21455148  0.71969125    -0.20600
F2194       F  0.99275465  0.17882850  0.74250954    -0.21800
F2195       F  0.97384247  0.21263883  0.75827986    -0.18900
F2196       F  0.88438813  0.14866569  0.67346397    -0.19000
F2197       F  0.87084878  0.18786861  0.67893380    -0.22900
F2198       F  0.86403634  0.15865136  0.70876822    -0.24500
C2199       C  0.70941695  0.19271971  0.85615030    -0.11300
C2200       C  0.72712180  0.20046284  0.87443346     0.11300
C2201       C  0.75049953  0.21084522  0.86677507    -0.03100
C2202       C  0.75364901  0.21672778  0.84127740    -0.05800
C2203       C  0.73440676  0.21223622  0.82362656    -0.16600
C2204       C  0.71301658  0.19804271  0.83050587     0.02300
C2205       C  0.72015747  0.19818236  0.90132383     0.12300
C2206       C  0.77166212  0.21639063  0.88537551     0.62900
H2207       H  0.77038828  0.22679442  0.83527849     0.12300
C2208       C  0.69400130  0.18801152  0.81159882     0.55000
H2209       H  0.69227721  0.18323468  0.86205777     0.08100
C2210       C  0.70556457  0.21669267  0.91352317    -0.05700
C2211       C  0.69741432  0.21217562  0.93838894    -0.06400
C2212       C  0.70305397  0.18967940  0.95091987    -0.16000
C2213       C  0.71861056  0.17175237  0.93895159    -0.01600
C2214       C  0.72692256  0.17637504  0.91425790    -0.09200
C2215       C  0.69780080  0.24057676  0.89989125     0.65100
H2216       H  0.68532714  0.22553571  0.94770155     0.10600
C2217       C  0.72637652  0.14776824  0.95217147     0.63500
H2218       H  0.73809416  0.16257366  0.90445968     0.07900
F2219       F  0.67056245  0.19805617  0.81634645    -0.19500
F2220       F  0.69238337  0.16225904  0.81406439    -0.15800
F2221       F  0.70063133  0.19333971  0.78699497    -0.19300
F2222       F  0.77904635  0.19440960  0.89698427    -0.22600
F2223       F  0.76358649  0.23306249  0.90342416    -0.24100
F2224       F  0.79261443  0.22669811  0.87364705    -0.18100
F2225       F  0.70553801  0.13248755  0.95565121    -0.20600
F2226       F  0.73706009  0.15344772  0.97530189    -0.21800
F2227       F  0.74397042  0.13453581  0.93839515    -0.18900
F2228       F  0.68462035  0.25655279  0.91547184    -0.19000
F2229       F  0.68245990  0.23475378  0.87954193    -0.22900
F2230       F  0.71891469  0.25326718  0.89132943    -0.24500
C2231       C  0.77013365  0.30591580  0.87655135    -0.11300
C2232       C  0.79555805  0.30029049  0.88150298     0.11300
C2233       C  0.81162282  0.29297434  0.86165151    -0.03100
C2234       C  0.80121719  0.29063984  0.83748339    -0.05800
C2235       C  0.77568158  0.29577867  0.83258374    -0.16600
C2236       C  0.75995329  0.30432652  0.85212219     0.02300
C2237       C  0.80483410  0.30254550  0.90770313     0.12300
C2238       C  0.83949877  0.28745117  0.86585220     0.62900
H2239       H  0.81278228  0.28378753  0.82222553     0.12300
C2240       C  0.73245475  0.31084547  0.84737535     0.55000
H2241       H  0.75823925  0.31126773  0.89214058     0.08100
C2242       C  0.80921527  0.32613778  0.91884345    -0.05700
C2243       C  0.81797348  0.32692276  0.94380834    -0.06400
C2244       C  0.82338764  0.30501359  0.95761313    -0.16000
C2245       C  0.81958470  0.28134821  0.94602145    -0.01600
C2246       C  0.80942884  0.28061454  0.92147965    -0.09200
C2247       C  0.80509871  0.35035150  0.90426470     0.65100
H2248       H  0.82117762  0.34491781  0.95268258     0.10600
C2249       C  0.82659405  0.25694015  0.95874842     0.63500
H2250       H  0.80543028  0.26279095  0.91257756     0.07900
F2251       F  0.72066558  0.31896654  0.86904461    -0.19500
F2252       F  0.71945158  0.29008876  0.83858557    -0.15800
F2253       F  0.73101277  0.32985417  0.82969270    -0.19300
F2254       F  0.84227442  0.26686807  0.88140626    -0.22600
F2255       F  0.85127163  0.30791418  0.87678433    -0.24100
F2256       F  0.85174492  0.28231237  0.84348569    -0.18100
F2257       F  0.80846759  0.25100434  0.97627407    -0.20600
F2258       F  0.84999184  0.25890877  0.97033134    -0.21800
F2259       F  0.82773731  0.23740116  0.94167678    -0.18900
F2260       F  0.81386892  0.37099090  0.91745464    -0.19000
F2261       F  0.77962041  0.35367477  0.89961255    -0.22900
F2262       F  0.81778983  0.34955483  0.88158276    -0.24500
C2263       C  0.57157748  0.19438340  0.81209345    -0.11300
C2264       C  0.57528281  0.21746658  0.80026610     0.11300
C2265       C  0.55482005  0.23413857  0.79769574    -0.03100
C2266       C  0.53193648  0.22829421  0.80977527    -0.05800
C2267       C  0.52847629  0.20596105  0.82356763    -0.16600
C2268       C  0.54850915  0.18796270  0.82356986     0.02300
C2269       C  0.60136000  0.22422910  0.79241629     0.12300
C2270       C  0.55714616  0.25781906  0.78200229     0.62900
H2271       H  0.51673431  0.24157228  0.80879084     0.12300
C2272       C  0.54644470  0.16212731  0.83560162     0.55000
H2273       H  0.58749902  0.18174517  0.81308467     0.08100
C2274       C  0.61877346  0.23487358  0.80968203    -0.05700
C2275       C  0.64301152  0.24139518  0.80116063    -0.06400
C2276       C  0.65093454  0.23641190  0.77642346    -0.16000
C2277       C  0.63370497  0.22468413  0.75942191    -0.01600
C2278       C  0.60905420  0.21895615  0.76779050    -0.09200
C2279       C  0.61189091  0.23886524  0.83715047     0.65100
H2280       H  0.65629241  0.25011190  0.81407477     0.10600
C2281       C  0.64088147  0.21871123  0.73247845     0.63500
H2282       H  0.59547886  0.21025375  0.75518164     0.07900
F2283       F  0.54616976  0.16435121  0.86151049    -0.19500
F2284       F  0.56670054  0.14702329  0.82952757    -0.15800
F2285       F  0.52478566  0.15005117  0.82723991    -0.19300
F2286       F  0.56234390  0.25139144  0.75738935    -0.22600
F2287       F  0.57642609  0.27282922  0.79122842    -0.24100
F2288       F  0.53507211  0.27162694  0.78200184    -0.18100
F2289       F  0.62082522  0.20856743  0.71902222    -0.20600
F2290       F  0.66027137  0.20145553  0.73241234    -0.21800
F2291       F  0.64855859  0.24031780  0.72024572    -0.18900
F2292       F  0.63135453  0.25008248  0.85059804    -0.19000
F2293       F  0.60667099  0.21603823  0.84836510    -0.22900
F2294       F  0.59087335  0.25401226  0.83886816    -0.24500
C2295       C  0.57395799  0.35006575  0.71871626    -0.11300
C2296       C  0.59052721  0.32974563  0.72082353     0.11300
C2297       C  0.58186849  0.30545989  0.71394522    -0.03100
C2298       C  0.55735425  0.30260811  0.70354670    -0.05800
C2299       C  0.54134742  0.32319942  0.69999910    -0.16600
C2300       C  0.54945762  0.34721862  0.70834896     0.02300
C2301       C  0.61696022  0.33397994  0.73021113     0.12300
C2302       C  0.59879263  0.28275045  0.71720404     0.62900
H2303       H  0.55090484  0.28442475  0.69710957     0.12300
C2304       C  0.53225653  0.36982437  0.70614573     0.55000
H2305       H  0.58065612  0.36835568  0.72457856     0.08100
C2306       C  0.63727115  0.33925849  0.71373080    -0.05700
C2307       C  0.66228253  0.33556481  0.72242038    -0.06400
C2308       C  0.66746864  0.32701645  0.74698587    -0.16000
C2309       C  0.64722258  0.32665524  0.76455088    -0.01600
C2310       C  0.62225590  0.32974703  0.75572176    -0.09200
C2311       C  0.63245353  0.34729544  0.68671974     0.65100
H2312       H  0.67774989  0.33635603  0.70917028     0.10600
C2313       C  0.65048464  0.32149555  0.79241595     0.63500
H2314       H  0.60663349  0.32711986  0.76860662     0.07900
F2315       F  0.52977018  0.37686893  0.68119179    -0.19500
F2316       F  0.54169765  0.39011606  0.71944246    -0.15800
F2317       F  0.50866143  0.36402144  0.71568629    -0.19300
F2318       F  0.60511865  0.27983195  0.74232988    -0.22600
F2319       F  0.62067018  0.28584641  0.70343814    -0.24100
F2320       F  0.58704295  0.26095754  0.70916202    -0.18100
F2321       F  0.63891007  0.34032173  0.80595802    -0.20600
F2322       F  0.67553164  0.32070509  0.79973600    -0.21800
F2323       F  0.63902214  0.29894662  0.79837410    -0.18900
F2324       F  0.65475718  0.35234139  0.67414389    -0.19000
F2325       F  0.61803959  0.36882006  0.68644211    -0.22900
F2326       F  0.61968050  0.32862377  0.67383120    -0.24500
C2327       C  0.71802328  0.31809796  0.56873155    -0.11300
C2328       C  0.71903440  0.29321948  0.57681898     0.11300
C2329       C  0.71154717  0.27367454  0.56042900    -0.03100
C2330       C  0.70106801  0.28000105  0.53692540    -0.05800
C2331       C  0.69799036  0.30511784  0.52965571    -0.16600
C2332       C  0.70825100  0.32443113  0.54501939     0.02300
C2333       C  0.72376752  0.28876538  0.60378986     0.12300
C2334       C  0.71386978  0.24639477  0.56814070     0.62900
H2335       H  0.69372701  0.26537587  0.52478250     0.12300
C2336       C  0.70847069  0.35174773  0.53714649     0.55000
H2337       H  0.72365683  0.33276271  0.58171494     0.08100
C2338       C  0.74803775  0.29074537  0.61481182    -0.05700
C2339       C  0.75019794  0.28768214  0.64090430    -0.06400
C2340       C  0.72899915  0.28265486  0.65600244    -0.16000
C2341       C  0.70475122  0.28025788  0.64480674    -0.01600
C2342       C  0.70257471  0.28404847  0.61880828    -0.09200
C2343       C  0.77143000  0.29644374  0.59933464     0.65100
H2344       H  0.76862050  0.28932743  0.64976269     0.10600
C2345       C  0.68140003  0.27299679  0.65981412     0.63500
H2346       H  0.68416712  0.28324226  0.60979942     0.07900
F2347       F  0.72681555  0.36507702  0.55024658    -0.19500
F2348       F  0.68524802  0.36234403  0.54206228    -0.15800
F2349       F  0.71380393  0.35394035  0.51176763    -0.19300
F2350       F  0.69770682  0.24118710  0.58782879    -0.22600
F2351       F  0.73844180  0.24157834  0.57560031    -0.24100
F2352       F  0.70787942  0.23036333  0.54852399    -0.18100
F2353       F  0.67535449  0.29202042  0.67631813    -0.20600
F2354       F  0.68581598  0.25113041  0.67314138    -0.21800
F2355       F  0.66063597  0.26881597  0.64441483    -0.18900
F2356       F  0.79338577  0.29415306  0.61348433    -0.19000
F2357       F  0.77027060  0.32068861  0.59028934    -0.22900
F2358       F  0.77299023  0.28008432  0.57928717    -0.24500
C2359       C  0.76351100  0.15267665  0.60565509    -0.11300
C2360       C  0.77021330  0.17543519  0.61695584     0.11300
C2361       C  0.78505215  0.19297282  0.60328365    -0.03100
C2362       C  0.79322999  0.18668497  0.57876951    -0.05800
C2363       C  0.78690626  0.16360304  0.56764830    -0.16600
C2364       C  0.77128314  0.14658155  0.58109402     0.02300
C2365       C  0.76056685  0.18085744  0.64275380     0.12300
C2366       C  0.79237262  0.21807291  0.61473315     0.62900
H2367       H  0.80536335  0.19939684  0.56842895     0.12300
C2368       C  0.76243595  0.12219150  0.56933696     0.55000
H2369       H  0.75215900  0.13958246  0.61638554     0.08100
C2370       C  0.73550464  0.18900301  0.64677311    -0.05700
C2371       C  0.72886310  0.19774413  0.67073289    -0.06400
C2372       C  0.74637380  0.19847975  0.69076879    -0.16000
C2373       C  0.76960977  0.18576158  0.68788190    -0.01600
C2374       C  0.77678502  0.17802655  0.66359902    -0.09200
C2375       C  0.71604973  0.18921298  0.62570631     0.65100
H2376       H  0.71042340  0.20597216  0.67327627     0.10600
C2377       C  0.78697513  0.17936959  0.70967408     0.63500
H2378       H  0.79529634  0.16991302  0.66084002     0.07900
F2379       F  0.74487151  0.10995194  0.58425040    -0.19500
F2380       F  0.78271687  0.10638260  0.56602117    -0.15800
F2381       F  0.75122751  0.12704552  0.54625543    -0.19300
F2382       F  0.80741988  0.21435876  0.63577540    -0.22600
F2383       F  0.77091863  0.23094780  0.62169891    -0.24100
F2384       F  0.80569416  0.23289062  0.59794926    -0.18100
F2385       F  0.79226333  0.15403489  0.70915111    -0.20600
F2386       F  0.77632435  0.18451239  0.73281281    -0.21800
F2387       F  0.80932349  0.19252429  0.70721437    -0.18900
F2388       F  0.69374073  0.20053012  0.63290037    -0.19000
F2389       F  0.71051923  0.16489684  0.61867906    -0.22900
F2390       F  0.72540985  0.20208676  0.60522757    -0.24500
C2391       C  0.33328925  0.78569331  0.85049513    -0.11300
C2392       C  0.32332334  0.77489379  0.87248228     0.11300
C2393       C  0.30855922  0.75279732  0.87073756    -0.03100
C2394       C  0.30164925  0.74406627  0.84677490    -0.05800
C2395       C  0.30893381  0.75668603  0.82480488    -0.16600
C2396       C  0.32646357  0.77664026  0.82647074     0.02300
C2397       C  0.32396036  0.78969940  0.89608351     0.12300
C2398       C  0.29780425  0.73999811  0.89392710     0.62900
H2399       H  0.28801808  0.72903276  0.84516959     0.12300
C2400       C  0.33558873  0.79002330  0.80313913     0.55000
H2401       H  0.34453688  0.80262753  0.85214637     0.08100
C2402       C  0.34473705  0.78975873  0.91294266    -0.05700
C2403       C  0.34289429  0.80372164  0.93538359    -0.06400
C2404       C  0.32131245  0.81794875  0.94079643    -0.16000
C2405       C  0.30115437  0.81880077  0.92326705    -0.01600
C2406       C  0.30269054  0.80433117  0.90129267    -0.09200
C2407       C  0.36889657  0.77591848  0.90676259     0.65100
H2408       H  0.35856730  0.80420972  0.94858958     0.10600
C2409       C  0.27859506  0.83565878  0.92739132     0.63500
H2410       H  0.28730360  0.80445098  0.88773993     0.07900
F2411       F  0.35658958  0.80478226  0.80821819    -0.19500
F2412       F  0.31652824  0.80512581  0.79402173    -0.15800
F2413       F  0.34214386  0.77275578  0.78495096    -0.19300
F2414       F  0.27882414  0.75447875  0.90400059    -0.22600
F2415       F  0.31651461  0.73665337  0.91185777    -0.24100
F2416       F  0.28779753  0.71666236  0.88820274    -0.18100
F2417       F  0.26151977  0.83445613  0.90756984    -0.20600
F2418       F  0.28667122  0.86023137  0.92973057    -0.21800
F2419       F  0.26620742  0.82852973  0.94907892    -0.18900
F2420       F  0.38629294  0.77723671  0.92629255    -0.19000
F2421       F  0.37975366  0.78641722  0.88558077    -0.22900
F2422       F  0.36378250  0.75094181  0.90211709    -0.24500
C2423       C  0.22051841  0.69326272  0.87328797    -0.11300
C2424       C  0.20234639  0.70844609  0.88438163     0.11300
C2425       C  0.19222579  0.72883471  0.87057326    -0.03100
C2426       C  0.20109893  0.73338136  0.84589172    -0.05800
C2427       C  0.21948870  0.71808699  0.83466359    -0.16600
C2428       C  0.22865898  0.69689260  0.84846961     0.02300
C2429       C  0.19477015  0.70178884  0.91056176     0.12300
C2430       C  0.17229188  0.74570469  0.88186751     0.62900
H2431       H  0.19422437  0.74943321  0.83547526     0.12300
C2432       C  0.24690181  0.67765089  0.83777414     0.55000
H2433       H  0.22834349  0.67816488  0.88450372     0.08100
C2434       C  0.18112336  0.67955236  0.91569006    -0.05700
C2435       C  0.17909271  0.67143745  0.94076303    -0.06400
C2436       C  0.18852884  0.68550019  0.96130113    -0.16000
C2437       C  0.20024395  0.70896478  0.95607100    -0.01600
C2438       C  0.20428255  0.71600363  0.93072499    -0.09200
C2439       C  0.16840714  0.66451452  0.89480714     0.65100
H2440       H  0.16982002  0.65370146  0.94443898     0.10600
C2441       C  0.20820508  0.72695272  0.97654573     0.63500
H2442       H  0.21524724  0.73265309  0.92647314     0.07900
F2443       F  0.24749600  0.65599601  0.85217289    -0.19500
F2444       F  0.27114971  0.68727435  0.83719817    -0.15800
F2445       F  0.23959057  0.67075934  0.81380791    -0.19300
F2446       F  0.18191853  0.75773392  0.90286783    -0.22600
F2447       F  0.15148466  0.73159327  0.88878646    -0.24100
F2448       F  0.16433169  0.76385092  0.86497332    -0.18100
F2449       F  0.23085343  0.71916317  0.98665078    -0.20600
F2450       F  0.18992522  0.72808012  0.99499610    -0.21800
F2451       F  0.21158709  0.75097823  0.96721791    -0.18900
F2452       F  0.15310568  0.64566357  0.90430599    -0.19000
F2453       F  0.18630938  0.65350881  0.87967870    -0.22900
F2454       F  0.15342405  0.68009688  0.88029389    -0.24500
C2455       C  0.21249383  0.91163342  0.71145209    -0.11300
C2456       C  0.19232091  0.89449358  0.71297141     0.11300
C2457       C  0.16756395  0.90283449  0.70754853    -0.03100
C2458       C  0.16401006  0.92782828  0.69971259    -0.05800
C2459       C  0.18431411  0.94478162  0.69650443    -0.16600
C2460       C  0.20910464  0.93646577  0.70266805     0.02300
C2461       C  0.19786916  0.86749586  0.71838853     0.12300
C2462       C  0.14499773  0.88523023  0.70960922     0.62900
H2463       H  0.14507234  0.93419606  0.69545615     0.12300
C2464       C  0.23211879  0.95284822  0.69829041     0.55000
H2465       H  0.23123227  0.90491439  0.71608533     0.08100
C2466       C  0.20772096  0.85146099  0.69971665    -0.05700
C2467       C  0.21301323  0.82638892  0.70603739    -0.06400
C2468       C  0.20875498  0.81647227  0.73031043    -0.16000
C2469       C  0.19714604  0.83225237  0.74852603    -0.01600
C2470       C  0.19246497  0.85761805  0.74227956    -0.09200
C2471       C  0.21284116  0.86083893  0.67315689     0.65100
H2472       H  0.22147806  0.81455057  0.69199323     0.10600
C2473       C  0.18981803  0.82284338  0.77453729     0.63500
H2474       H  0.18473851  0.87018210  0.75618767     0.07900
F2475       F  0.23261287  0.96028201  0.67334732    -0.19500
F2476       F  0.25439571  0.94027786  0.70336279    -0.15800
F2477       F  0.23129811  0.97362301  0.71374199    -0.19300
F2478       F  0.14163425  0.87834337  0.73447081    -0.22600
F2479       F  0.14889630  0.86398182  0.69533228    -0.24100
F2480       F  0.12292083  0.89632154  0.70118578    -0.18100
F2481       F  0.21107135  0.81602273  0.78811198    -0.20600
F2482       F  0.17375270  0.80245564  0.77217800    -0.21800
F2483       F  0.17731916  0.84093527  0.78825500    -0.18900
F2484       F  0.22083031  0.84181872  0.65750771    -0.19000
F2485       F  0.23148882  0.87904247  0.67361941    -0.22900
F2486       F  0.19104613  0.87082277  0.66285727    -0.24500
C2487       C  0.31287190  0.86981575  0.75496767    -0.11300
C2488       C  0.29532687  0.88412892  0.76860562     0.11300
C2489       C  0.27113147  0.87395409  0.77336479    -0.03100
C2490       C  0.26615526  0.84907469  0.76639462    -0.05800
C2491       C  0.28425610  0.83370052  0.75470977    -0.16600
C2492       C  0.30756788  0.84476975  0.74747406     0.02300
C2493       C  0.30275801  0.90913532  0.77914983     0.12300
C2494       C  0.25069299  0.88917413  0.78624740     0.62900
H2495       H  0.24780338  0.84123407  0.77053031     0.12300
C2496       C  0.32663789  0.83043455  0.73206888     0.55000
H2497       H  0.33097955  0.87829089  0.75070971     0.08100
C2498       C  0.31495399  0.91123125  0.80283534    -0.05700
C2499       C  0.31800853  0.93512372  0.81370844    -0.06400
C2500       C  0.30939425  0.95721355  0.80185651    -0.16000
C2501       C  0.29787609  0.95505583  0.77754727    -0.01600
C2502       C  0.29493905  0.93099198  0.76668417    -0.09200
C2503       C  0.32440320  0.88816045  0.81676109     0.65100
H2504       H  0.32691975  0.93656084  0.83203937     0.10600
C2505       C  0.28865090  0.97770736  0.76283322     0.63500
H2506       H  0.28565496  0.92887656  0.74858012     0.07900
F2507       F  0.34813437  0.84455344  0.72744572    -0.19500
F2508       F  0.31596135  0.82402197  0.70912157    -0.15800
F2509       F  0.33383235  0.80893081  0.74465044    -0.19300
F2510       F  0.24445030  0.90957402  0.77144348    -0.22600
F2511       F  0.25917072  0.89750055  0.80945538    -0.24100
F2512       F  0.22888626  0.87530080  0.79012081    -0.18100
F2513       F  0.30793219  0.99514049  0.76057583    -0.20600
F2514       F  0.26829654  0.98830541  0.77497419    -0.21800
F2515       F  0.28082798  0.97138708  0.73875730    -0.18900
F2516       F  0.33555963  0.89419918  0.83962016    -0.19000
F2517       F  0.34220214  0.87606474  0.80231059    -0.22900
F2518       F  0.30453713  0.87192196  0.82143934    -0.24500
C2519       C  0.30632227  0.67858217  0.58252875    -0.11300
C2520       C  0.30051086  0.70409163  0.58339058     0.11300
C2521       C  0.30068369  0.71837254  0.56080674    -0.03100
C2522       C  0.30777600  0.70657210  0.53824808    -0.05800
C2523       C  0.31404658  0.68105688  0.53747926    -0.16600
C2524       C  0.31209455  0.66653432  0.55984379     0.02300
C2525       C  0.29402552  0.71455722  0.60838460     0.12300
C2526       C  0.29355787  0.74583469  0.55919203     0.62900
H2527       H  0.30886220  0.71758553  0.52111265     0.12300
C2528       C  0.31611799  0.63843467  0.56049704     0.55000
H2529       H  0.30602647  0.66792813  0.59993912     0.08100
C2530       C  0.26985837  0.71086542  0.61892089    -0.05700
C2531       C  0.26533940  0.71992425  0.64332864    -0.06400
C2532       C  0.28405228  0.73273187  0.65734224    -0.16000
C2533       C  0.30810933  0.73691406  0.64642530    -0.01600
C2534       C  0.31274664  0.72744355  0.62209551    -0.09200
C2535       C  0.24902019  0.69732877  0.60435591     0.65100
H2536       H  0.24694991  0.71700106  0.65169461     0.10600
C2537       C  0.32895349  0.75071309  0.66048364     0.63500
H2538       H  0.33107253  0.73000874  0.61347270     0.07900
F2539       F  0.30263876  0.62749510  0.57994519    -0.19500
F2540       F  0.34145879  0.63367654  0.56436594    -0.15800
F2541       F  0.30801405  0.62728946  0.53835445    -0.19300
F2542       F  0.28613959  0.75577670  0.58193380    -0.22600
F2543       F  0.27378362  0.74856630  0.54226232    -0.24100
F2544       F  0.31404429  0.75951962  0.55063452    -0.18100
F2545       F  0.35159661  0.75015885  0.64757691    -0.20600
F2546       F  0.33280784  0.73975301  0.68381448    -0.21800
F2547       F  0.32229188  0.77551212  0.66359909    -0.18900
F2548       F  0.22603140  0.69864557  0.61657758    -0.19000
F2549       F  0.25507207  0.67242811  0.60130107    -0.22900
F2550       F  0.24616707  0.70774323  0.58071698    -0.24500
C2551       C  0.19450131  0.82223955  0.58496813    -0.11300
C2552       C  0.19966483  0.79668185  0.58710725     0.11300
C2553       C  0.20215935  0.78214232  0.56498436    -0.03100
C2554       C  0.19879530  0.79369773  0.54130135    -0.05800
C2555       C  0.19384636  0.81942866  0.53916307    -0.16600
C2556       C  0.19312364  0.83420245  0.56144198     0.02300
C2557       C  0.20525250  0.78650004  0.61269261     0.12300
C2558       C  0.20870089  0.75465490  0.56656449     0.62900
H2559       H  0.19931708  0.78253789  0.52430930     0.12300
C2560       C  0.19228899  0.86263140  0.56174178     0.55000
H2561       H  0.19310344  0.83329935  0.60201278     0.08100
C2562       C  0.22883259  0.79107969  0.62453928    -0.05700
C2563       C  0.23309326  0.78128285  0.64873118    -0.06400
C2564       C  0.21489620  0.76677186  0.66144715    -0.16000
C2565       C  0.19128148  0.76206913  0.64952257    -0.01600
C2566       C  0.18676674  0.77234828  0.62533369    -0.09200
C2567       C  0.24952719  0.80627155  0.61169353     0.65100
H2568       H  0.25110632  0.78474858  0.65783583     0.10600
C2569       C  0.17085026  0.74670773  0.66229683     0.63500
H2570       H  0.16881865  0.76922679  0.61592956     0.07900
F2571       F  0.21033834  0.87165305  0.57843629    -0.19500
F2572       F  0.16877740  0.87029650  0.56977009    -0.15800
F2573       F  0.19740102  0.87322915  0.53854726    -0.19300
F2574       F  0.18933136  0.74160180  0.57810392    -0.22600
F2575       F  0.23056966  0.75198019  0.58053583    -0.24100
F2576       F  0.21262972  0.74431260  0.54303145    -0.18100
F2577       F  0.14830992  0.74728529  0.64894725    -0.20600
F2578       F  0.16641771  0.75607495  0.68612791    -0.21800
F2579       F  0.17838326  0.72201105  0.66413893    -0.18900
F2580       F  0.24211594  0.83092625  0.60924731    -0.19000
F2581       F  0.25433819  0.79671566  0.58805579    -0.22900
F2582       F  0.27193171  0.80590624  0.62527862    -0.24500
C2583       C  0.27573023  0.57632516  0.69127524    -0.11300
C2584       C  0.29654279  0.59278304  0.69036057     0.11300
C2585       C  0.31984331  0.58390021  0.68124468    -0.03100
C2586       C  0.32122467  0.55916360  0.67223643    -0.05800
C2587       C  0.30017149  0.54276815  0.67182073    -0.16600
C2588       C  0.27698750  0.55145358  0.68205272     0.02300
C2589       C  0.29339730  0.61944186  0.69851554     0.12300
C2590       C  0.34317849  0.60063304  0.68085252     0.62900
H2591       H  0.33909072  0.55250856  0.66514730     0.12300
C2592       C  0.25344443  0.53510848  0.68268970     0.55000
H2593       H  0.25823329  0.58339322  0.69887833     0.08100
C2594       C  0.28309514  0.63786526  0.68231855    -0.05700
C2595       C  0.28046682  0.66264284  0.69117617    -0.06400
C2596       C  0.28741973  0.66963732  0.71582084    -0.16000
C2597       C  0.29874045  0.65117354  0.73176346    -0.01600
C2598       C  0.30123956  0.62639544  0.72276848    -0.09200
C2599       C  0.27362437  0.63104029  0.65620714     0.65100
H2600       H  0.27182742  0.67658396  0.67912612     0.10600
C2601       C  0.30775680  0.65702792  0.75837090     0.63500
H2602       H  0.30915987  0.61197092  0.73475738     0.07900
F2603       F  0.24753390  0.52698370  0.65863765    -0.19500
F2604       F  0.23275401  0.54790889  0.69182954    -0.15800
F2605       F  0.25751276  0.51469949  0.69824336    -0.19300
F2606       F  0.34980020  0.60720780  0.70517862    -0.22600
F2607       F  0.33837292  0.62212624  0.66711096    -0.24100
F2608       F  0.36366178  0.58880679  0.67010396    -0.18100
F2609       F  0.28777811  0.66493712  0.77289141    -0.20600
F2610       F  0.32617128  0.67547886  0.75765482    -0.21800
F2611       F  0.31814886  0.63629986  0.77014610    -0.18900
F2612       F  0.25358259  0.61444462  0.65800787    -0.19000
F2613       F  0.29269580  0.62013386  0.64243081    -0.22900
F2614       F  0.26537362  0.65188664  0.64325839    -0.24500
C2615       C  0.20660679  0.57938388  0.79824881    -0.11300
C2616       C  0.18839995  0.59023250  0.78227512     0.11300
C2617       C  0.16661201  0.57612213  0.77557185    -0.03100
C2618       C  0.16313550  0.55213535  0.78634067    -0.05800
C2619       C  0.18080949  0.54176998  0.80319458    -0.16600
C2620       C  0.20294321  0.55553372  0.80922591     0.02300
C2621       C  0.19280456  0.61644404  0.77310581     0.12300
C2622       C  0.14691297  0.58653416  0.75751045     0.62900
H2623       H  0.14608955  0.54152542  0.78231913     0.12300
C2624       C  0.22189867  0.54548798  0.82819073     0.55000
H2625       H  0.22337273  0.59022634  0.80278107     0.08100
C2626       C  0.18965623  0.63766268  0.78880535    -0.05700
C2627       C  0.19739013  0.66141035  0.77987449    -0.06400
C2628       C  0.20796923  0.66465441  0.75588612    -0.16000
C2629       C  0.20830097  0.64386982  0.73925742    -0.01600
C2630       C  0.20138785  0.62003620  0.74844588    -0.09200
C2631       C  0.17871050  0.63522212  0.81506610     0.65100
H2632       H  0.19655493  0.67754030  0.79217553     0.10600
C2633       C  0.21596999  0.64521197  0.71190370     0.63500
H2634       H  0.20332358  0.60386196  0.73631282     0.07900
F2635       F  0.21033067  0.54222885  0.85127033    -0.19500
F2636       F  0.24220539  0.56162802  0.83147014    -0.15800
F2637       F  0.23102084  0.52271514  0.82000537    -0.19300
F2638       F  0.15731419  0.58945513  0.73387401    -0.22600
F2639       F  0.13850644  0.60949757  0.76591655    -0.24100
F2640       F  0.12618437  0.57075945  0.75527279    -0.18100
F2641       F  0.23624960  0.62956076  0.70823831    -0.20600
F2642       F  0.22241931  0.66900095  0.70402776    -0.21800
F2643       F  0.19603970  0.63698554  0.69705690    -0.18900
F2644       F  0.17526683  0.65837959  0.82618418    -0.19000
F2645       F  0.19478217  0.62148018  0.83026272    -0.22900
F2646       F  0.15548214  0.62330957  0.81387110    -0.24500
loop_ 
_geom_bond_atom_site_label_1 
_geom_bond_atom_site_label_2 
_geom_bond_distance 
_geom_bond_site_symmetry_2 
_ccdc_geom_bond_type 
O1            C9   1.265       .  A
O1          Co21   1.958       .  S
O2           C10   1.275       .  A
O2          Co22   2.024       .  S
O3           C11   1.306       .  A
O3          Co23   2.121       .  S
O4           C12   1.277       .  A
O4          Co24   2.003       .  S
O5           C11   1.276       .  A
O5          Co22   1.917       .  S
O6           C12   1.276       .  A
O6          Co21   1.993       .  S
O7           C10   1.266       .  A
O7          Co24   1.978       .  S
O8            C9   1.303       .  A
O8          Co23   2.090       .  S
C9         C2596   1.505       .  S
C10        C2491   1.507       .  S
C11        C2532   1.490       .  S
C12        C2395   1.474       .  S
O13          C26   1.262       .  A
O13         Co21   1.981       .  S
O14          C27   1.314       .  A
O14         Co22   2.136       .  S
O15          C28   1.274       .  A
O15         Co23   2.001       .  S
O16          C29   1.276       .  A
O16         Co24   1.974       .  S
O17          C29   1.309       .  A
O17         Co22   2.082       .  S
O18          C28   1.273       .  A
O18         Co21   2.011       .  S
O19          C26   1.276       .  A
O19         Co24   2.009       .  S
O20          C27   1.274       .  A
O20         Co23   1.920       .  S
Co21         O25   2.017       .  S
Co22         O25   1.960       .  S
Co23         O25   1.966       .  S
Co24         O25   2.003       .  S
C26        C2427   1.498       .  S
C27        C2564   1.493       .  S
C28        C2628   1.488       .  S
C29        C2468   1.508       .  S
O30          C38   1.268       .  A
O30         Co50   1.988       .  S
O31          C39   1.261       .  A
O31         Co51   1.946       .  S
O32          C40   1.269       .  A
O32         Co52   2.026       .  S
O33          C41   1.264       .  A
O33         Co53   2.003       .  S
O34          C40   1.266       .  A
O34         Co51   1.997       .  S
O35          C41   1.262       .  A
O35         Co50   1.981       .  S
O36          C39   1.278       .  A
O36         Co53   2.025       .  S
O37          C38   1.262       .  A
O37         Co52   1.972       .  S
C38        C2372   1.489       .  S
C39        C2203   1.459       .  S
C40        C2171   1.512       .  S
C41        C2276   1.493       .  S
O42          C55   1.273       .  A
O42         Co50   2.014       .  S
O43          C56   1.281       .  A
O43         Co51   2.049       .  S
O44          C57   1.246       .  A
O44         Co52   1.915       .  S
O45          C58   1.274       .  A
O45         Co53   2.003       .  S
O46          C58   1.260       .  A
O46         Co51   1.949       .  S
O47          C57   1.263       .  A
O47         Co50   2.002       .  S
O48          C55   1.275       .  A
O48         Co53   1.998       .  S
O49          C56   1.257       .  A
O49         Co52   1.951       .  S
Co50         O54   2.058       .  S
Co51         O54   2.007       .  S
Co52         O54   2.022       .  S
Co53         O54   2.099       .  S
C55        C2308   1.492       .  S
C56        C2139   1.487       .  S
C57        C2340   1.467       .  S
C58        C2235   1.465       .  S
O59          C67   1.289       .  A
O59         Co79   2.055       .  S
O60          C68   1.281       .  A
O60         Co80   2.009       .  S
O61          C69   1.301       .  A
O61         Co81   2.137       .  S
O62          C70   1.270       .  A
O62         Co82   2.004       .  S
O63          C69   1.264       .  A
O63         Co80   1.897       .  S
O64          C70   1.282       .  A
O64         Co79   2.005       .  S
O65          C68   1.277       .  A
O65         Co82   2.019       .  S
O66          C67   1.259       .  A
O66         Co81   1.976       .  S
C67        C2084   1.530       .  S
C68        C1947   1.496       .  S
C69        C1915   1.504       .  S
C70        C2043   1.509       .  S
O71          C84   1.278       .  A
O71         Co79   2.016       .  S
O72          C85   1.301       .  A
O72         Co80   2.135       .  S
O73          C86   1.278       .  A
O73         Co81   2.008       .  S
O74          C87   1.271       .  A
O74         Co82   2.007       .  S
O75          C87   1.262       .  A
O75         Co80   2.001       .  S
O76          C86   1.266       .  A
O76         Co79   1.992       .  S
O77          C84   1.270       .  A
O77         Co82   1.984       .  S
O78          C85   1.265       .  A
O78         Co81   1.877       .  S
Co79         O83   2.067       .  S
Co80         O83   2.004       .  S
Co81         O83   1.988       .  S
Co82         O83   2.045       .  S
C84        C2011   1.481       .  S
C85        C1892   1.473       .  S
C86        C2107   1.498       .  S
C87        C1979   1.500       .  S
C88        C1860   1.506   1_556  S
C88          C89   1.424       .  A
C88          C93   1.426   1_565  A
C89        C1828   1.495   1_556  S
C89          C90   1.421       .  A
C90        C1732   1.494       .  S
C90          C91   1.418   1_565  A
C91        C1700   1.509       .  S
C91          C92   1.423       .  A
C92        C1787   1.495       .  S
C92          C93   1.429       .  A
C93        C1755   1.503       .  S
C94        C1924   1.515       .  S
C94          N95   1.368       .  A
C94          N99   1.362       .  A
N95          C96   1.364   1_565  A
C96        C1659   1.486       .  S
C96          N97   1.356       .  A
N97          C98   1.354   1_545  A
C98        C1851   1.491       .  S
C98          N99   1.362       .  A
C100       C2212   1.484       .  S
C100        N101   1.357       .  A
C100        N105   1.368       .  A
N101        C102   1.354       .  A
C102       C1764   1.480       .  S
C102        N103   1.356   1_556  A
N103        C104   1.360       .  A
C104       C1636   1.501       .  S
C104        N105   1.370   1_554  A
C106       C2500   1.511       .  S
C106        N107   1.363       .  A
C106        N111   1.366   1_565  A
N107        C108   1.358   1_565  A
C108       C1691   1.481       .  S
C108        N109   1.357       .  A
N109        C110   1.359       .  A
C110       C1604   1.483       .  S
C110        N111   1.365       .  A
C112       C2267   1.506       .  S
C112        N113   1.364       .  A
C112        N117   1.350       .  A
N113        C114   1.365       .  A
C114       C1563   1.507       .  S
C114        N115   1.366       .  A
N115        C116   1.358       .  A
C116       C1796   1.487       .  S
C116        N117   1.353       .  A
C118       C1531   1.502       .  S
C118        N119   1.376       .  A
C118        N123   1.352       .  A
N119        C120   1.380       .  A
C120       C2075   1.526       .  S
C120        N121   1.362       .  A
N121        C122   1.357       .  A
C122       C1819   1.476       .  S
C122        N123   1.347       .  A
C124       C2404   1.476       .  S
C124        N125   1.357       .  A
C124        N129   1.365       .  A
N125        C126   1.354       .  A
C126       C1723   1.484       .  S
C126        N127   1.355   1_556  A
N127        C128   1.358       .  A
C128       C1508   1.491       .  S
C128        N129   1.364   1_554  A
C130       C1435   1.499       .  S
C130        C131   1.425       .  A
C130        C135   1.431   1_556  A
C131       C1467   1.503       .  S
C131        C132   1.417   1_655  A
C132       C1307   1.488       .  S
C132        C133   1.413       .  A
C133       C1339   1.501       .  S
C133        C134   1.420   1_456  A
C134       C1371   1.499       .  S
C134        C135   1.428       .  A
C135       C1403   1.505       .  S
C136       C2436   1.505       .  S
C136        N137   1.355       .  A
C136        N141   1.375   1_556  A
N137        C138   1.348   1_556  A
C138       C1348   1.490       .  S
C138        N139   1.353       .  A
N139        C140   1.366       .  A
C140       C1275   1.521       .  S
C140        N141   1.379       .  A
C142       C2619   1.486       .  S
C142        N143   1.356       .  A
C142        N147   1.373       .  A
N143        C144   1.351       .  A
C144       C1316   1.460       .  S
C144        N145   1.348       .  A
N145        C146   1.352       .  A
C146       C1252   1.506       .  S
C146        N147   1.374       .  A
C148       C1956   1.490       .  S
C148        N149   1.355       .  A
C148        N153   1.370   1_655  A
N149        C150   1.353   1_655  A
C150       C1380   1.471       .  S
C150        N151   1.356       .  A
N151        C152   1.360       .  A
C152       C1211   1.491       .  S
C152        N153   1.371       .  A
C154       C1188   1.498       .  S
C154        N155   1.361       .  A
C154        N159   1.373       .  A
N155        C156   1.353       .  A
C156       C1412   1.498       .  S
C156        N157   1.355       .  A
N157        C158   1.359       .  A
C158       C2052   1.512       .  S
C158        N159   1.372       .  A
C160       C1147   1.498       .  S
C160        N161   1.359       .  A
C160        N165   1.370   1_455  A
N161        C162   1.355   1_455  A
C162       C1476   1.488       .  S
C162        N163   1.355       .  A
N163        C164   1.357       .  A
C164       C2148   1.498       .  S
C164        N165   1.370       .  A
C166       C1124   1.509       .  S
C166        N167   1.363       .  A
C166        N171   1.371       .  A
N167        C168   1.353       .  A
C168       C1444   1.475       .  S
C168        N169   1.348   1_554  A
N169        C170   1.355       .  A
C170       C2244   1.486       .  S
C170        N171   1.369   1_556  A
C172       C1051   1.492       .  S
C172        C173   1.421       .  A
C172        C177   1.417       .  A
C173       C1083   1.495       .  S
C173        C174   1.422       .  A
C174        C955   1.496       .  S
C174        C175   1.421       .  A
C175        C923   1.488       .  S
C175        C176   1.414       .  A
C176        C996   1.497       .  S
C176        C177   1.411       .  A
C177       C1019   1.487       .  S
C178        C891   1.494       .  S
C178        N179   1.371       .  A
C178        N183   1.361       .  A
N179        C180   1.369       .  A
C180       C2299   1.490       .  S
C180        N181   1.354       .  A
N181        C182   1.352       .  A
C182       C1092   1.478       .  S
C182        N183   1.359       .  A
C184        C868   1.504       .  S
C184        N185   1.363       .  A
C184        N189   1.360       .  A
N185        C186   1.364       .  A
C186       C2523   1.486       .  S
C186        N187   1.357       .  A
N187        C188   1.357       .  A
C188        C932   1.485       .  S
C188        N189   1.353       .  A
C190        C836   1.484       .  S
C190        N191   1.356       .  A
C190        N195   1.364       .  A
N191        C192   1.353       .  A
C192       C1028   1.487       .  S
C192        N193   1.358       .  A
N193        C194   1.357       .  A
C194       C2020   1.480       .  S
C194        N195   1.363       .  A
C196        C795   1.499       .  S
C196        N197   1.359       .  A
C196        N201   1.367       .  A
N197        C198   1.354       .  A
C198        C987   1.475       .  S
C198        N199   1.355       .  A
N199        C200   1.359       .  A
C200       C2116   1.500       .  S
C200        N201   1.369       .  A
C202        C772   1.495       .  S
C202        N203   1.371       .  A
C202        N207   1.356       .  A
N203        C204   1.372       .  A
C204       C2587   1.510       .  S
C204        N205   1.361       .  A
N205        C206   1.353       .  A
C206        C964   1.480       .  S
C206        N207   1.352       .  A
C208        C731   1.483       .  S
C208        N209   1.356       .  A
C208        N213   1.361       .  A
N209        C210   1.353       .  A
C210       C1060   1.469       .  S
C210        N211   1.353       .  A
N211        C212   1.357       .  A
C212       C2331   1.479       .  S
C212        N213   1.361       .  A
C214        C539   1.500       .  S
C214        C215   1.416   1_655  A
C214        C219   1.415       .  A
C215        C699   1.490       .  S
C215        C216   1.421       .  A
C216        C667   1.505       .  S
C216        C217   1.425   1_455  A
C217        C635   1.486   1_565  S
C217        C218   1.421       .  A
C218        C612   1.509   1_565  S
C218        C219   1.417       .  A
C219        C571   1.478       .  S
C220       C2180   1.492       .  S
C220        N221   1.360       .  A
C220        N225   1.361       .  A
N221        C222   1.356       .  A
C222        C644   1.472       .  S
C222        N223   1.350   1_655  A
N223        C224   1.351       .  A
C224        C507   1.476       .  S
C224        N225   1.361   1_455  A
C226        C475   1.495       .  S
C226        N227   1.371   1_545  A
C226        N231   1.362       .  A
N227        C228   1.371       .  A
C228       C2459   1.508       .  S
C228        N229   1.359       .  A
N229        C230   1.354       .  A
C230        C676   1.478       .  S
C230        N231   1.358   1_565  A
C232       C2555   1.486       .  S
C232        N233   1.352       .  A
C232        N237   1.363       .  A
N233        C234   1.356       .  A
C234        C708   1.500       .  S
C234        N235   1.360       .  A
N235        C236   1.364       .  A
C236        C443   1.485       .  S
C236        N237   1.365       .  A
C238       C2363   1.492       .  S
C238        N239   1.358       .  A
C238        N243   1.371       .  A
N239        C240   1.355       .  A
C240        C603   1.491       .  S
C240        N241   1.357       .  A
N241        C242   1.362       .  A
C242        C420   1.512       .  S
C242        N243   1.372       .  A
C244       C1883   1.478       .  S
C244        N245   1.365       .  A
C244        N249   1.353       .  A
N245        C246   1.365   1_565  A
C246        C379   1.474       .  S
C246        N247   1.355       .  A
N247        C248   1.352   1_545  A
C248        C580   1.465       .  S
C248        N249   1.350       .  A
C250       C1988   1.505       .  S
C250        N251   1.356       .  A
C250        N255   1.372   1_655  A
N251        C252   1.353   1_655  A
C252        C548   1.477       .  S
C252        N253   1.353       .  A
N253        C254   1.361       .  A
C254        C356   1.506       .  S
C254        N255   1.373       .  A
O256        C264   1.278       .  A
O256       Co276   2.013       .  S
O257        C265   1.274       .  A
O257       Co277   2.009       .  S
O258        C266   1.270       .  A
O258       Co278   1.999       .  S
O259        C267   1.302       .  A
O259       Co279   2.136       .  S
O260        C266   1.265       .  A
O260       Co277   1.973       .  S
O261        C267   1.271       .  A
O261       Co276   1.899       .  S
O262        C265   1.261       .  A
O262       Co279   1.990       .  S
O263        C264   1.273       .  A
O263       Co278   2.017       .  S
C264        C484   1.499       .  S
C265        C763   1.497       .  S
C266        C516   1.474       .  S
C267        C900   1.489       .  S
O268        C281   1.304       .  A
O268       Co276   2.138       .  S
O269        C282   1.275       .  A
O269       Co277   2.032       .  S
O270        C283   1.269       .  A
O270       Co278   1.996       .  S
O271        C284   1.280       .  A
O271       Co279   2.015       .  S
O272        C284   1.265       .  A
O272       Co277   1.989       .  S
O273        C283   1.270       .  A
O273       Co276   2.019       .  S
O274        C281   1.265       .  A
O274       Co279   1.886       .  S
O275        C282   1.271       .  A
O275       Co278   1.991       .  S
Co276       O280   2.022       .  S
Co277       O280   2.056       .  S
Co278       O280   2.052       .  S
Co279       O280   2.001       .  S
C281       C1572   1.506       .  S
C282       C1156   1.495       .  S
C283       C1595   1.500       .  S
C284       C1243   1.510       .  S
O285        C293   1.261       .  A
O285       Co305   2.020       .  S
O286        C294   1.289       .  A
O286       Co306   2.066       .  S
O287        C295   1.264       .  A
O287       Co307   1.990       .  S
O288        C296   1.275       .  A
O288       Co308   2.011       .  S
O289        C295   1.295       .  A
O289       Co306   2.047       .  S
O290        C296   1.270       .  A
O290       Co305   2.009       .  S
O291        C294   1.275       .  A
O291       Co308   1.987       .  S
O292        C293   1.253       .  A
O292       Co307   1.961       .  S
C293        C388   1.480       .  S
C294       C1179   1.501       .  S
C295       C1115   1.492       .  S
C296        C411   1.503       .  S
O297        C310   1.268       .  A
O297       Co305   1.976       .  S
O298        C311   1.266       .  A
O298       Co306   2.034       .  S
O299        C312   1.299       .  A
O299       Co307   2.098       .  S
O300        C313   1.293       .  A
O300       Co308   2.072       .  S
O301        C313   1.271       .  A
O301       Co306   1.920       .  S
O302        C312   1.271       .  A
O302       Co305   1.899       .  S
O303        C310   1.273       .  A
O303       Co308   2.010       .  S
O304        C311   1.249       .  A
O304       Co307   1.974       .  S
Co305       O309   1.976       .  S
Co306       O309   1.974       .  S
Co307       O309   2.108       .  S
Co308       O309   2.112       .  S
C310        C740   1.479       .  S
C311       C1627   1.509       .  S
C312       C1668   1.479       .  S
C313        C827   1.503       .  S
O314        C322   1.265       .  A
O314       Co334   1.998       .  S
O315        C323   1.283       .  A
O315       Co335   1.905       .  S
O316        C324   1.271       .  A
O316       Co336   2.004       .  S
O317        C325   1.261       .  A
O317       Co337   1.986       .  S
O318        C324   1.282       .  A
O318       Co335   1.994       .  S
O319        C325   1.273       .  A
O319       Co334   2.008       .  S
O320        C323   1.314       .  A
O320       Co337   2.151       .  S
O321        C322   1.265       .  A
O321       Co336   2.006       .  S
C322        C804   1.509       .  S
C323       C1220   1.495       .  S
C324        C859   1.500       .  S
C325       C1284   1.504       .  S
O326        C339   1.263       .  A
O326       Co334   2.003       .  S
O327        C340   1.278       .  A
O327       Co335   2.001       .  S
O328        C341   1.283       .  A
O328       Co336   1.991       .  S
O329        C342   1.248       .  A
O329       Co337   1.980       .  S
O330        C342   1.255       .  A
O330       Co335   2.052       .  S
O331        C341   1.284       .  A
O331       Co334   2.037       .  S
O332        C339   1.269       .  A
O332       Co337   2.000       .  S
O333        C340   1.282       .  A
O333       Co336   2.007       .  S
Co334       O338   2.080       .  S
Co335       O338   1.983       .  S
Co336       O338   2.086       .  S
Co337       O338   2.123       .  S
C339       C1499   1.509       .  S
C340        C452   1.497       .  S
C341       C1540   1.501       .  S
C342        C347   1.503       .  S
C343        C344   1.406       .  A
C343        C348   1.417       .  A
C343        H353   1.083       .  S
C344        C349   1.501       .  S
C344        C345   1.417       .  A
C345        C346   1.411       .  A
C345        C350   1.519       .  S
C346        C347   1.409       .  A
C346        H351   1.081       .  S
C347        C348   1.422       .  A
C348        C352   1.516       .  S
C349        C354   1.413       .  A
C349        C358   1.407       .  A
C350        F366   1.382       .  S
C350        F367   1.382       .  S
C350        F368   1.384       .  S
C352        F363   1.384       .  S
C352        F364   1.383       .  S
C352        F365   1.383       .  S
C354        C355   1.411       .  A
C354        C359   1.519       .  S
C355        C356   1.413       .  A
C355        H360   1.083       .  S
C356        C357   1.422       .  A
C357        C358   1.416       .  A
C357        C361   1.518       .  S
C358        H362   1.081       .  S
C359        F372   1.385       .  S
C359        F373   1.382       .  S
C359        F374   1.382       .  S
C361        F369   1.383       .  S
C361        F370   1.383       .  S
C361        F371   1.385       .  S
C375        C376   1.402       .  A
C375        C380   1.410       .  A
C375        H385   1.083       .  S
C376        C381   1.485       .  S
C376        C377   1.418       .  A
C377        C378   1.406       .  A
C377        C382   1.518       .  S
C378        C379   1.397       .  A
C378        H383   1.083       .  S
C379        C380   1.416       .  A
C380        C384   1.517       .  S
C381        C386   1.416       .  A
C381        C390   1.399       .  A
C382        F398   1.382       .  S
C382        F399   1.380       .  S
C382        F400   1.383       .  S
C384        F395   1.382       .  S
C384        F396   1.384       .  S
C384        F397   1.384       .  S
C386        C387   1.409       .  A
C386        C391   1.519       .  S
C387        C388   1.405       .  A
C387        H392   1.083       .  S
C388        C389   1.422       .  A
C389        C390   1.406       .  A
C389        C393   1.520       .  S
C390        H394   1.083       .  S
C391        F404   1.385       .  S
C391        F405   1.383       .  S
C391        F406   1.382       .  S
C393        F401   1.385       .  S
C393        F402   1.383       .  S
C393        F403   1.383       .  S
C407        C408   1.406       .  A
C407        C412   1.418       .  A
C407        H417   1.083       .  S
C408        C413   1.506       .  S
C408        C409   1.419       .  A
C409        C410   1.414       .  A
C409        C414   1.519       .  S
C410        C411   1.408       .  A
C410        H415   1.083       .  S
C411        C412   1.422       .  A
C412        C416   1.518       .  S
C413        C418   1.416       .  A
C413        C422   1.407       .  A
C414        F430   1.382       .  S
C414        F431   1.382       .  S
C414        F432   1.384       .  S
C416        F427   1.384       .  S
C416        F428   1.383       .  S
C416        F429   1.383       .  S
C418        C419   1.412       .  A
C418        C423   1.520       .  S
C419        C420   1.412       .  A
C419        H424   1.082       .  S
C420        C421   1.425       .  A
C421        C422   1.420       .  A
C421        C425   1.518       .  S
C422        H426   1.083       .  S
C423        F436   1.385       .  S
C423        F437   1.382       .  S
C423        F438   1.382       .  S
C425        F433   1.385       .  S
C425        F434   1.382       .  S
C425        F435   1.383       .  S
C439        C440   1.401       .  A
C439        C444   1.404       .  A
C439        H449   1.083       .  S
C440        C445   1.493       .  S
C440        C441   1.417       .  A
C441        C442   1.415       .  A
C441        C446   1.518       .  S
C442        C443   1.407       .  A
C442        H447   1.083       .  S
C443        C444   1.420       .  A
C444        C448   1.518       .  S
C445        C450   1.415       .  A
C445        C454   1.408       .  A
C446        F462   1.382       .  S
C446        F463   1.382       .  S
C446        F464   1.384       .  S
C448        F459   1.384       .  S
C448        F460   1.383       .  S
C448        F461   1.381       .  S
C450        C451   1.402       .  A
C450        C455   1.523       .  S
C451        C452   1.410       .  A
C451        H456   1.083       .  S
C452        C453   1.419       .  A
C453        C454   1.418       .  A
C453        C457   1.516       .  S
C454        H458   1.082       .  S
C455        F468   1.384       .  S
C455        F469   1.381       .  S
C455        F470   1.382       .  S
C457        F465   1.384       .  S
C457        F466   1.381       .  S
C457        F467   1.383       .  S
C471        C472   1.406       .  A
C471        C476   1.417       .  A
C471        H481   1.083       .  S
C472        C477   1.505       .  S
C472        C473   1.425       .  A
C473        C474   1.412       .  A
C473        C478   1.519       .  S
C474        C475   1.402       .  A
C474        H479   1.085       .  S
C475        C476   1.418       .  A
C476        C480   1.514       .  S
C477        C482   1.414       .  A
C477        C486   1.407       .  A
C478        F494   1.379       .  S
C478        F495   1.383       .  S
C478        F496   1.384       .  S
C480        F491   1.384       .  S
C480        F492   1.383       .  S
C480        F493   1.380       .  S
C482        C483   1.413       .  A
C482        C487   1.516       .  S
C483        C484   1.409       .  A
C483        H488   1.083       .  S
C484        C485   1.422       .  A
C485        C486   1.418       .  A
C485        C489   1.513       .  S
C486        H490   1.084       .  S
C487        F500   1.381       .  S
C487        F501   1.381       .  S
C487        F502   1.383       .  S
C489        F497   1.383       .  S
C489        F498   1.380       .  S
C489        F499   1.382       .  S
C503        C504   1.398       .  A
C503        C508   1.406       .  A
C503        H513   1.083       .  S
C504        C509   1.479       .  S
C504        C505   1.417       .  A
C505        C506   1.402       .  A
C505        C510   1.517       .  S
C506        C507   1.399       .  A
C506        H511   1.083       .  S
C507        C508   1.422       .  A
C508        C512   1.519       .  S
C509        C514   1.412       .  A
C509        C518   1.401       .  A
C510        F526   1.382       .  S
C510        F527   1.380       .  S
C510        F528   1.385       .  S
C512        F523   1.381       .  S
C512        F524   1.385       .  S
C512        F525   1.383       .  S
C514        C515   1.402       .  A
C514        C519   1.519       .  S
C515        C516   1.403       .  A
C515        H520   1.084       .  S
C516        C517   1.420       .  A
C517        C518   1.409       .  A
C517        C521   1.517       .  S
C518        H522   1.083       .  S
C519        F532   1.384       .  S
C519        F533   1.383       .  S
C519        F534   1.382       .  S
C521        F529   1.385       .  S
C521        F530   1.383       .  S
C521        F531   1.380       .  S
C535        C536   1.401   1_455  A
C535        C540   1.407       .  A
C535        H545   1.084       .  S
C536        C541   1.487   1_655  S
C536        C537   1.415       .  A
C537        C538   1.406       .  A
C537        C542   1.519       .  S
C538        C539   1.402       .  A
C538        H543   1.077       .  S
C539        C540   1.423   1_655  A
C540        C544   1.519       .  S
C541        C546   1.418   1_455  A
C541        C550   1.406       .  A
C542        F558   1.384       .  S
C542        F559   1.382       .  S
C542        F560   1.382       .  S
C544        F555   1.383       .  S
C544        F556   1.383       .  S
C544        F557   1.381       .  S
C546        C547   1.403       .  A
C546        C551   1.515       .  S
C547        C548   1.400   1_655  A
C547        H552   1.085       .  S
C548        C549   1.416       .  A
C549        C550   1.410       .  A
C549        C553   1.517       .  S
C550        H554   1.084       .  S
C551        F564   1.384       .  S
C551        F565   1.379       .  S
C551        F566   1.382       .  S
C553        F561   1.383       .  S
C553        F562   1.383       .  S
C553        F563   1.385       .  S
C567        C568   1.398       .  A
C567        C572   1.399       .  A
C567        H577   1.085       .  S
C568        C573   1.472       .  S
C568        C569   1.414       .  A
C569        C570   1.399       .  A
C569        C574   1.520   1_565  S
C570        C571   1.401       .  A
C570        H575   1.082   1_565  S
C571        C572   1.419       .  A
C572        C576   1.518       .  S
C573        C578   1.415       .  A
C573        C582   1.400   1_565  A
C574        F590   1.381       .  S
C574        F591   1.383       .  S
C574        F592   1.385       .  S
C576        F587   1.384       .  S
C576        F588   1.381       .  S
C576        F589   1.379       .  S
C578        C579   1.400       .  A
C578        C583   1.519       .  S
C579        C580   1.401       .  A
C579        H584   1.084       .  S
C580        C581   1.415   1_565  A
C581        C582   1.403       .  A
C581        C585   1.518       .  S
C582        H586   1.083       .  S
C583        F596   1.384       .  S
C583        F597   1.381       .  S
C583        F598   1.380       .  S
C585        F593   1.383       .  S
C585        F594   1.382       .  S
C585        F595   1.382       .  S
C599        C600   1.403       .  A
C599        C604   1.412       .  A
C599        H609   1.082       .  S
C600        C605   1.492       .  S
C600        C601   1.416       .  A
C601        C602   1.409       .  A
C601        C606   1.519       .  S
C602        C603   1.405       .  A
C602        H607   1.083       .  S
C603        C604   1.422       .  A
C604        C608   1.519       .  S
C605        C610   1.414       .  A
C605        C614   1.399       .  A
C606        F622   1.382       .  S
C606        F623   1.381       .  S
C606        F624   1.383       .  S
C608        F619   1.385       .  S
C608        F620   1.383       .  S
C608        F621   1.383       .  S
C610        C611   1.411       .  A
C610        C615   1.518       .  S
C611        C612   1.409       .  A
C611        H616   1.082       .  S
C612        C613   1.423       .  A
C613        C614   1.407       .  A
C613        C617   1.511   1_545  S
C614        H618   1.085       .  S
C615        F628   1.384       .  S
C615        F629   1.383       .  S
C615        F630   1.381       .  S
C617        F625   1.382       .  S
C617        F626   1.374       .  S
C617        F627   1.383       .  S
C631        C632   1.396       .  A
C631        C636   1.399       .  A
C631        H641   1.085       .  S
C632        C637   1.470       .  S
C632        C633   1.411       .  A
C633        C634   1.401       .  A
C633        C638   1.520   1_655  S
C634        C635   1.406       .  A
C634        H639   1.082       .  S
C635        C636   1.420       .  A
C636        C640   1.513   1_545  S
C637        C642   1.412       .  A
C637        C646   1.398   1_655  A
C638        F654   1.383       .  S
C638        F655   1.381   1_455  S
C638        F656   1.385       .  S
C640        F651   1.383       .  S
C640        F652   1.382       .  S
C640        F653   1.375       .  S
C642        C643   1.402       .  A
C642        C647   1.520       .  S
C643        C644   1.405       .  A
C643        H648   1.083       .  S
C644        C645   1.419   1_655  A
C645        C646   1.401       .  A
C645        C649   1.520       .  S
C646        H650   1.080       .  S
C647        F660   1.384       .  S
C647        F661   1.382       .  S
C647        F662   1.381       .  S
C649        F657   1.385       .  S
C649        F658   1.383       .  S
C649        F659   1.381       .  S
C663        C664   1.398       .  A
C663        C668   1.405       .  A
C663        H673   1.085       .  S
C664        C669   1.487       .  S
C664        C665   1.413   1_565  A
C665        C666   1.407   1_545  A
C665        C670   1.518       .  S
C666        C667   1.408       .  A
C666        H671   1.082   1_565  S
C667        C668   1.424       .  A
C668        C672   1.513       .  S
C669        C674   1.418       .  A
C669        C678   1.402       .  A
C670        F686   1.382       .  S
C670        F687   1.382       .  S
C670        F688   1.385       .  S
C672        F683   1.383       .  S
C672        F684   1.382       .  S
C672        F685   1.373   1_455  S
C674        C675   1.409       .  A
C674        C679   1.519   1_565  S
C675        C676   1.402       .  A
C675        H680   1.083   1_565  S
C676        C677   1.415       .  A
C677        C678   1.408       .  A
C677        C681   1.516       .  S
C678        H682   1.083       .  S
C679        F692   1.384       .  S
C679        F693   1.382   1_545  S
C679        F694   1.380       .  S
C681        F689   1.383       .  S
C681        F690   1.383       .  S
C681        F691   1.384       .  S
C695        C696   1.399       .  A
C695        C700   1.402       .  A
C695        H705   1.085       .  S
C696        C701   1.473       .  S
C696        C697   1.409       .  A
C697        C698   1.401       .  A
C697        C702   1.517       .  S
C698        C699   1.405       .  A
C698        H703   1.082       .  S
C699        C700   1.425       .  A
C700        C704   1.521       .  S
C701        C706   1.412       .  A
C701        C710   1.400       .  A
C702        F718   1.383       .  S
C702        F719   1.382       .  S
C702        F720   1.384       .  S
C704        F715   1.383       .  S
C704        F716   1.383   1_455  S
C704        F717   1.378   1_455  S
C706        C707   1.397       .  A
C706        C711   1.524       .  S
C707        C708   1.411       .  A
C707        H712   1.081       .  S
C708        C709   1.427       .  A
C709        C710   1.410       .  A
C709        C713   1.516       .  S
C710        H714   1.083       .  S
C711        F724   1.384       .  S
C711        F725   1.383       .  S
C711        F726   1.381       .  S
C713        F721   1.379       .  S
C713        F722   1.383       .  S
C713        F723   1.384       .  S
C727        C728   1.400       .  A
C727        C732   1.407       .  A
C727        H737   1.083       .  S
C728        C733   1.481       .  S
C728        C729   1.418       .  A
C729        C730   1.406       .  A
C729        C734   1.523       .  S
C730        C731   1.404       .  A
C730        H735   1.083       .  S
C731        C732   1.422       .  A
C732        C736   1.519       .  S
C733        C738   1.414       .  A
C733        C742   1.397       .  A
C734        F750   1.382       .  S
C734        F751   1.382       .  S
C734        F752   1.384       .  S
C736        F747   1.384       .  S
C736        F748   1.383       .  S
C736        F749   1.384       .  S
C738        C739   1.413       .  A
C738        C743   1.516       .  S
C739        C740   1.408       .  A
C739        H744   1.083       .  S
C740        C741   1.414       .  A
C741        C742   1.398       .  A
C741        C745   1.505       .  S
C742        H746   1.085       .  S
C743        F756   1.384       .  S
C743        F757   1.383       .  S
C743        F758   1.382       .  S
C745        F753   1.384       .  S
C745        F754   1.380       .  S
C745        F755   1.381       .  S
C759        C760   1.400       .  A
C759        C764   1.409       .  A
C759        H769   1.083       .  S
C760        C765   1.500       .  S
C760        C761   1.419       .  A
C761        C762   1.416       .  A
C761        C766   1.519       .  S
C762        C763   1.407       .  A
C762        H767   1.083       .  S
C763        C764   1.426       .  A
C764        C768   1.520       .  S
C765        C770   1.422       .  A
C765        C774   1.400       .  A
C766        F782   1.381       .  S
C766        F783   1.383       .  S
C766        F784   1.385       .  S
C768        F779   1.381       .  S
C768        F780   1.385       .  S
C768        F781   1.376       .  S
C770        C771   1.415       .  A
C770        C775   1.517       .  S
C771        C772   1.404       .  A
C771        H776   1.083       .  S
C772        C773   1.424       .  A
C773        C774   1.407       .  A
C773        C777   1.518       .  S
C774        H778   1.084       .  S
C775        F788   1.384       .  S
C775        F789   1.382       .  S
C775        F790   1.382       .  S
C777        F785   1.385       .  S
C777        F786   1.383       .  S
C777        F787   1.384       .  S
C791        C792   1.405       .  A
C791        C796   1.415       .  A
C791        H801   1.083       .  S
C792        C797   1.497       .  S
C792        C793   1.416       .  A
C793        C794   1.407       .  A
C793        C798   1.520       .  S
C794        C795   1.408       .  A
C794        H799   1.081       .  S
C795        C796   1.423       .  A
C796        C800   1.518       .  S
C797        C802   1.413       .  A
C797        C806   1.406       .  A
C798        F814   1.382       .  S
C798        F815   1.382       .  S
C798        F816   1.385       .  S
C800        F811   1.385       .  S
C800        F812   1.383       .  S
C800        F813   1.382       .  S
C802        C803   1.405       .  A
C802        C807   1.522       .  S
C803        C804   1.413       .  A
C803        H808   1.082       .  S
C804        C805   1.424       .  A
C805        C806   1.419       .  A
C805        C809   1.517       .  S
C806        H810   1.082       .  S
C807        F820   1.383       .  S
C807        F821   1.382       .  S
C807        F822   1.383       .  S
C809        F817   1.385       .  S
C809        F818   1.383       .  S
C809        F819   1.383       .  S
C823        C824   1.405       .  A
C823        C828   1.415       .  A
C823        H833   1.082       .  S
C824        C829   1.495       .  S
C824        C825   1.416       .  A
C825        C826   1.405       .  A
C825        C830   1.525       .  S
C826        C827   1.411       .  A
C826        H831   1.080       .  S
C827        C828   1.423       .  A
C828        C832   1.518       .  S
C829        C834   1.420       .  A
C829        C838   1.402       .  A
C830        F846   1.380       .  S
C830        F847   1.383       .  S
C830        F848   1.383       .  S
C832        F843   1.383       .  S
C832        F844   1.385       .  S
C832        F845   1.383       .  S
C834        C835   1.410       .  A
C834        C839   1.519       .  S
C835        C836   1.404       .  A
C835        H840   1.083       .  S
C836        C837   1.421       .  A
C837        C838   1.404       .  A
C837        C841   1.522       .  S
C838        H842   1.083       .  S
C839        F852   1.381       .  S
C839        F853   1.380       .  S
C839        F854   1.384       .  S
C841        F849   1.382       .  S
C841        F850   1.381       .  S
C841        F851   1.384       .  S
C855        C856   1.392       .  A
C855        C860   1.401       .  A
C855        H865   1.084       .  S
C856        C861   1.486       .  S
C856        C857   1.413       .  A
C857        C858   1.415       .  A
C857        C862   1.517       .  S
C858        C859   1.411       .  A
C858        H863   1.083       .  S
C859        C860   1.436       .  A
C860        C864   1.522       .  S
C861        C866   1.411       .  A
C861        C870   1.403       .  A
C862        F878   1.383       .  S
C862        F879   1.381       .  S
C862        F880   1.384       .  S
C864        F875   1.371       .  S
C864        F876   1.385       .  S
C864        F877   1.383       .  S
C866        C867   1.404       .  A
C866        C871   1.523       .  S
C867        C868   1.413       .  A
C867        H872   1.080       .  S
C868        C869   1.427       .  A
C869        C870   1.412       .  A
C869        C873   1.521       .  S
C870        H874   1.080       .  S
C871        F884   1.384       .  S
C871        F885   1.383       .  S
C871        F886   1.380       .  S
C873        F881   1.383       .  S
C873        F882   1.383       .  S
C873        F883   1.385       .  S
C887        C888   1.407       .  A
C887        C892   1.414       .  A
C887        H897   1.083       .  S
C888        C893   1.507       .  S
C888        C889   1.420       .  A
C889        C890   1.416       .  A
C889        C894   1.518       .  S
C890        C891   1.406       .  A
C890        H895   1.083       .  S
C891        C892   1.417       .  A
C892        C896   1.517       .  S
C893        C898   1.419       .  A
C893        C902   1.409       .  A
C894        F910   1.382       .  S
C894        F911   1.383       .  S
C894        F912   1.384       .  S
C896        F907   1.384       .  S
C896        F908   1.383       .  S
C896        F909   1.383       .  S
C898        C899   1.410       .  A
C898        C903   1.514       .  S
C899        C900   1.402       .  A
C899        H904   1.084       .  S
C900        C901   1.417       .  A
C901        C902   1.418       .  A
C901        C905   1.519       .  S
C902        H906   1.082       .  S
C903        F916   1.385       .  S
C903        F917   1.378       .  S
C903        F918   1.383       .  S
C905        F913   1.384       .  S
C905        F914   1.380       .  S
C905        F915   1.383       .  S
C919        C920   1.397       .  A
C919        C924   1.402       .  A
C919        H929   1.085       .  S
C920        C925   1.475       .  S
C920        C921   1.413       .  A
C921        C922   1.401       .  A
C921        C926   1.521       .  S
C922        C923   1.403       .  A
C922        H927   1.080       .  S
C923        C924   1.422       .  A
C924        C928   1.517       .  S
C925        C930   1.409       .  A
C925        C934   1.399       .  A
C926        F942   1.382       .  S
C926        F943   1.382       .  S
C926        F944   1.385       .  S
C928        F939   1.383       .  S
C928        F940   1.383       .  S
C928        F941   1.378       .  S
C930        C931   1.399       .  A
C930        C935   1.518       .  S
C931        C932   1.405       .  A
C931        H936   1.078       .  S
C932        C933   1.424       .  A
C933        C934   1.408       .  A
C933        C937   1.519       .  S
C934        H938   1.084       .  S
C935        F948   1.384       .  S
C935        F949   1.382       .  S
C935        F950   1.379       .  S
C937        F945   1.383       .  S
C937        F946   1.380       .  S
C937        F947   1.385       .  S
C951        C952   1.401       .  A
C951        C956   1.406       .  A
C951        H961   1.085       .  S
C952        C957   1.489       .  S
C952        C953   1.415       .  A
C953        C954   1.407       .  A
C953        C958   1.519       .  S
C954        C955   1.405       .  A
C954        H959   1.080       .  S
C955        C956   1.421       .  A
C956        C960   1.515       .  S
C957        C962   1.414       .  A
C957        C966   1.402       .  A
C958        F974   1.382       .  S
C958        F975   1.382       .  S
C958        F976   1.385       .  S
C960        F971   1.383       .  S
C960        F972   1.383       .  S
C960        F973   1.377       .  S
C962        C963   1.404       .  A
C962        C967   1.513       .  S
C963        C964   1.403       .  A
C963        H968   1.083       .  S
C964        C965   1.418       .  A
C965        C966   1.408       .  A
C965        C969   1.519       .  S
C966        H970   1.077       .  S
C967        F980   1.385       .  S
C967        F981   1.381       .  S
C967        F982   1.382       .  S
C969        F977   1.382       .  S
C969        F978   1.384       .  S
C969        F979   1.384       .  S
C983        C984   1.403       .  A
C983        C988   1.408       .  A
C983        H993   1.084       .  S
C984        C989   1.483       .  S
C984        C985   1.420       .  A
C985        C986   1.405       .  A
C985        C990   1.519       .  S
C986        C987   1.400       .  A
C986        H991   1.085       .  S
C987        C988   1.415       .  A
C988        C992   1.517       .  S
C989        C994   1.413       .  A
C989        C998   1.401       .  A
C990       F1006   1.383       .  S
C990       F1007   1.379       .  S
C990       F1008   1.383       .  S
C992       F1003   1.384       .  S
C992       F1004   1.382       .  S
C992       F1005   1.384       .  S
C994        C995   1.406       .  A
C994        C999   1.518       .  S
C995        C996   1.405       .  A
C995       H1000   1.081       .  S
C996        C997   1.423       .  A
C997        C998   1.406       .  A
C997       C1001   1.520       .  S
C998       H1002   1.085       .  S
C999       F1012   1.383       .  S
C999       F1013   1.382       .  S
C999       F1014   1.384       .  S
C1001      F1009   1.382       .  S
C1001      F1010   1.381       .  S
C1001      F1011   1.382       .  S
C1015      C1016   1.404       .  A
C1015      C1020   1.400       .  A
C1015      H1025   1.084       .  S
C1016      C1021   1.483       .  S
C1016      C1017   1.419       .  A
C1017      C1018   1.401       .  A
C1017      C1022   1.522       .  S
C1018      C1019   1.403       .  A
C1018      H1023   1.082       .  S
C1019      C1020   1.418       .  A
C1020      C1024   1.518       .  S
C1021      C1026   1.418       .  A
C1021      C1030   1.402       .  A
C1022      F1038   1.383       .  S
C1022      F1039   1.381       .  S
C1022      F1040   1.382       .  S
C1024      F1035   1.384       .  S
C1024      F1036   1.383       .  S
C1024      F1037   1.381       .  S
C1026      C1027   1.401       .  A
C1026      C1031   1.520       .  S
C1027      C1028   1.406       .  A
C1027      H1032   1.084       .  S
C1028      C1029   1.423       .  A
C1029      C1030   1.403       .  A
C1029      C1033   1.520       .  S
C1030      H1034   1.083       .  S
C1031      F1044   1.384       .  S
C1031      F1045   1.383       .  S
C1031      F1046   1.381       .  S
C1033      F1041   1.378       .  S
C1033      F1042   1.384       .  S
C1033      F1043   1.385       .  S
C1047      C1048   1.400       .  A
C1047      C1052   1.405       .  A
C1047      H1057   1.085       .  S
C1048      C1053   1.478       .  S
C1048      C1049   1.411       .  A
C1049      C1050   1.402       .  A
C1049      C1054   1.518       .  S
C1050      C1051   1.404       .  A
C1050      H1055   1.080       .  S
C1051      C1052   1.422       .  A
C1052      C1056   1.517       .  S
C1053      C1058   1.419       .  A
C1053      C1062   1.404       .  A
C1054      F1070   1.383       .  S
C1054      F1071   1.381       .  S
C1054      F1072   1.385       .  S
C1056      F1067   1.383       .  S
C1056      F1068   1.383       .  S
C1056      F1069   1.378       .  S
C1058      C1059   1.403       .  A
C1058      C1063   1.521       .  S
C1059      C1060   1.400       .  A
C1059      H1064   1.085       .  S
C1060      C1061   1.413       .  A
C1061      C1062   1.406       .  A
C1061      C1065   1.518       .  S
C1062      H1066   1.083       .  S
C1063      F1076   1.383       .  S
C1063      F1077   1.381       .  S
C1063      F1078   1.383       .  S
C1065      F1073   1.383       .  S
C1065      F1074   1.383       .  S
C1065      F1075   1.384       .  S
C1079      C1080   1.401       .  A
C1079      C1084   1.407       .  A
C1079      H1089   1.085       .  S
C1080      C1085   1.484       .  S
C1080      C1081   1.413       .  A
C1081      C1082   1.404       .  A
C1081      C1086   1.518       .  S
C1082      C1083   1.405       .  A
C1082      H1087   1.079       .  S
C1083      C1084   1.422       .  A
C1084      C1088   1.515       .  S
C1085      C1090   1.419       .  A
C1085      C1094   1.404       .  A
C1086      F1102   1.383       .  S
C1086      F1103   1.382       .  S
C1086      F1104   1.385       .  S
C1088      F1099   1.383       .  S
C1088      F1100   1.383       .  S
C1088      F1101   1.378       .  S
C1090      C1091   1.402       .  A
C1090      C1095   1.516       .  S
C1091      C1092   1.399       .  A
C1091      H1096   1.085       .  S
C1092      C1093   1.418       .  A
C1093      C1094   1.410       .  A
C1093      C1097   1.518       .  S
C1094      H1098   1.083       .  S
C1095      F1108   1.384       .  S
C1095      F1109   1.383       .  S
C1095      F1110   1.380       .  S
C1097      F1105   1.383       .  S
C1097      F1106   1.382       .  S
C1097      F1107   1.384       .  S
C1111      C1112   1.402       .  A
C1111      C1116   1.412       .  A
C1111      H1121   1.083       .  S
C1112      C1117   1.487       .  S
C1112      C1113   1.413       .  A
C1113      C1114   1.406       .  A
C1113      C1118   1.523       .  S
C1114      C1115   1.410       .  A
C1114      H1119   1.083       .  S
C1115      C1116   1.427       .  A
C1116      C1120   1.524       .  S
C1117      C1122   1.411       .  A
C1117      C1126   1.399       .  A
C1118      F1134   1.382       .  S
C1118      F1135   1.380       .  S
C1118      F1136   1.384       .  S
C1120      F1131   1.385       .  S
C1120      F1132   1.380       .  S
C1120      F1133   1.379       .  S
C1122      C1123   1.406       .  A
C1122      C1127   1.521       .  S
C1123      C1124   1.414       .  A
C1123      H1128   1.081       .  S
C1124      C1125   1.427       .  A
C1125      C1126   1.411       .  A
C1125      C1129   1.511       .  S
C1126      H1130   1.083       .  S
C1127      F1140   1.385       .  S
C1127      F1141   1.382       .  S
C1127      F1142   1.380       .  S
C1129      F1137   1.385       .  S
C1129      F1138   1.383       .  S
C1129      F1139   1.382       .  S
C1143      C1144   1.400       .  A
C1143      C1148   1.411       .  A
C1143      H1153   1.083       .  S
C1144      C1149   1.499       .  S
C1144      C1145   1.419       .  A
C1145      C1146   1.415       .  A
C1145      C1150   1.517       .  S
C1146      C1147   1.406       .  A
C1146      H1151   1.083       .  S
C1147      C1148   1.425       .  A
C1148      C1152   1.520       .  S
C1149      C1154   1.419       .  A
C1149      C1158   1.403       .  A
C1150      F1166   1.382       .  S
C1150      F1167   1.382       .  S
C1150      F1168   1.385       .  S
C1152      F1163   1.380       .  S
C1152      F1164   1.385       .  S
C1152      F1165   1.384       .  S
C1154      C1155   1.413       .  A
C1154      C1159   1.519       .  S
C1155      C1156   1.403       .  A
C1155      H1160   1.080       .  S
C1156      C1157   1.420       .  A
C1157      C1158   1.414       .  A
C1157      C1161   1.514       .  S
C1158      H1162   1.083       .  S
C1159      F1172   1.384       .  S
C1159      F1173   1.383       .  S
C1159      F1174   1.382       .  S
C1161      F1169   1.384       .  S
C1161      F1170   1.382       .  S
C1161      F1171   1.377       .  S
C1175      C1176   1.399       .  A
C1175      C1180   1.407       .  A
C1175      H1185   1.085       .  S
C1176      C1181   1.496       .  S
C1176      C1177   1.415       .  A
C1177      C1178   1.415       .  A
C1177      C1182   1.512       .  S
C1178      C1179   1.408       .  A
C1178      H1183   1.083       .  S
C1179      C1180   1.417       .  A
C1180      C1184   1.499       .  S
C1181      C1186   1.415       .  A
C1181      C1190   1.405       .  A
C1182      F1198   1.378       .  S
C1182      F1199   1.382       .  S
C1182      F1200   1.382       .  S
C1184      F1195   1.383       .  S
C1184      F1196   1.378       .  S
C1184      F1197   1.375       .  S
C1186      C1187   1.410       .  A
C1186      C1191   1.520       .  S
C1187      C1188   1.409       .  A
C1187      H1192   1.083       .  S
C1188      C1189   1.421       .  A
C1189      C1190   1.415       .  A
C1189      C1193   1.516       .  S
C1190      H1194   1.083       .  S
C1191      F1204   1.384       .  S
C1191      F1205   1.382       .  S
C1191      F1206   1.382       .  S
C1193      F1201   1.385       .  S
C1193      F1202   1.383       .  S
C1193      F1203   1.377       .  S
C1207      C1208   1.405       .  A
C1207      C1212   1.412       .  A
C1207      H1217   1.083       .  S
C1208      C1213   1.502       .  S
C1208      C1209   1.421       .  A
C1209      C1210   1.417       .  A
C1209      C1214   1.519       .  S
C1210      C1211   1.405       .  A
C1210      H1215   1.083       .  S
C1211      C1212   1.418       .  A
C1212      C1216   1.518       .  S
C1213      C1218   1.421       .  A
C1213      C1222   1.400       .  A
C1214      F1230   1.382       .  S
C1214      F1231   1.382       .  S
C1214      F1232   1.384       .  S
C1216      F1227   1.383       .  S
C1216      F1228   1.385       .  S
C1216      F1229   1.383       .  S
C1218      C1219   1.417       .  A
C1218      C1223   1.518       .  S
C1219      C1220   1.406       .  A
C1219      H1224   1.083       .  S
C1220      C1221   1.418       .  A
C1221      C1222   1.408       .  A
C1221      C1225   1.509       .  S
C1222      H1226   1.085       .  S
C1223      F1236   1.385       .  S
C1223      F1237   1.381       .  S
C1223      F1238   1.382       .  S
C1225      F1233   1.377       .  S
C1225      F1234   1.379       .  S
C1225      F1235   1.384       .  S
C1239      C1240   1.391       .  A
C1239      C1244   1.402       .  A
C1239      H1249   1.083       .  S
C1240      C1245   1.493       .  S
C1240      C1241   1.415       .  A
C1241      C1242   1.419       .  A
C1241      C1246   1.516       .  S
C1242      C1243   1.412       .  A
C1242      H1247   1.082       .  S
C1243      C1244   1.441       .  A
C1244      C1248   1.528       .  S
C1245      C1250   1.418       .  A
C1245      C1254   1.396       .  A
C1246      F1262   1.383       .  S
C1246      F1263   1.381       .  S
C1246      F1264   1.384       .  S
C1248      F1259   1.385       .  S
C1248      F1260   1.382       .  S
C1248      F1261   1.377       .  S
C1250      C1251   1.414       .  A
C1250      C1255   1.518       .  S
C1251      C1252   1.407       .  A
C1251      H1256   1.082       .  S
C1252      C1253   1.436       .  A
C1253      C1254   1.409       .  A
C1253      C1257   1.526       .  S
C1254      H1258   1.083       .  S
C1255      F1268   1.384       .  S
C1255      F1269   1.380       .  S
C1255      F1270   1.381       .  S
C1257      F1265   1.385       .  S
C1257      F1266   1.383       .  S
C1257      F1267   1.383       .  S
C1271      C1272   1.401       .  A
C1271      C1276   1.413       .  A
C1271      H1281   1.083       .  S
C1272      C1277   1.493       .  S
C1272      C1273   1.413       .  A
C1273      C1274   1.410       .  A
C1273      C1278   1.521       .  S
C1274      C1275   1.416       .  A
C1274      H1279   1.081       .  S
C1275      C1276   1.427       .  A
C1276      C1280   1.507       .  S
C1277      C1282   1.417       .  A
C1277      C1286   1.393       .  A
C1278      F1294   1.382       .  S
C1278      F1295   1.381       .  S
C1278      F1296   1.385       .  S
C1280      F1291   1.385       .  S
C1280      F1292   1.380       .  S
C1280      F1293   1.382       .  S
C1282      C1283   1.419       .  A
C1282      C1287   1.516       .  S
C1283      C1284   1.412       .  A
C1283      H1288   1.082       .  S
C1284      C1285   1.435       .  A
C1285      C1286   1.399       .  A
C1285      C1289   1.521       .  S
C1286      H1290   1.085       .  S
C1287      F1300   1.384       .  S
C1287      F1301   1.382       .  S
C1287      F1302   1.381       .  S
C1289      F1297   1.383       .  S
C1289      F1298   1.369       .  S
C1289      F1299   1.385       .  S
C1303      C1304   1.400       .  A
C1303      C1308   1.402       .  A
C1303      H1313   1.085       .  S
C1304      C1309   1.477       .  S
C1304      C1305   1.414       .  A
C1305      C1306   1.402       .  A
C1305      C1310   1.520       .  S
C1306      C1307   1.403       .  A
C1306      H1311   1.081       .  S
C1307      C1308   1.421       .  A
C1308      C1312   1.520       .  S
C1309      C1314   1.421       .  A
C1309      C1318   1.401       .  A
C1310      F1326   1.381       .  S
C1310      F1327   1.383       .  S
C1310      F1328   1.384       .  S
C1312      F1323   1.384       .  S
C1312      F1324   1.383       .  S
C1312      F1325   1.381       .  S
C1314      C1315   1.403       .  A
C1314      C1319   1.520       .  S
C1315      C1316   1.399       .  A
C1315      H1320   1.085       .  S
C1316      C1317   1.415       .  A
C1317      C1318   1.399       .  A
C1317      C1321   1.520       .  S
C1318      H1322   1.085       .  S
C1319      F1332   1.383       .  S
C1319      F1333   1.384       .  S
C1319      F1334   1.379       .  S
C1321      F1329   1.383       .  S
C1321      F1330   1.381       .  S
C1321      F1331   1.384       .  S
C1335      C1336   1.400   1_556  A
C1335      C1340   1.406       .  A
C1335      H1345   1.085       .  S
C1336      C1341   1.487       .  S
C1336      C1337   1.415       .  A
C1337      C1338   1.407       .  A
C1337      C1342   1.519       .  S
C1338      C1339   1.406   1_554  A
C1338      H1343   1.082       .  S
C1339      C1340   1.421       .  A
C1340      C1344   1.515       .  S
C1341      C1346   1.414   1_554  A
C1341      C1350   1.403       .  A
C1342      F1358   1.382       .  S
C1342      F1359   1.382       .  S
C1342      F1360   1.384       .  S
C1344      F1355   1.384       .  S
C1344      F1356   1.382   1_455  S
C1344      F1357   1.378   1_455  S
C1346      C1347   1.404       .  A
C1346      C1351   1.519       .  S
C1347      C1348   1.408   1_556  A
C1347      H1352   1.082       .  S
C1348      C1349   1.420       .  A
C1349      C1350   1.411       .  A
C1349      C1353   1.517       .  S
C1350      H1354   1.082       .  S
C1351      F1364   1.385       .  S
C1351      F1365   1.382       .  S
C1351      F1366   1.380       .  S
C1353      F1361   1.384       .  S
C1353      F1362   1.381       .  S
C1353      F1363   1.385       .  S
C1367      C1368   1.398       .  A
C1367      C1372   1.403       .  A
C1367      H1377   1.085       .  S
C1368      C1373   1.481   1_655  S
C1368      C1369   1.412   1_655  A
C1369      C1370   1.405       .  A
C1369      C1374   1.519       .  S
C1370      C1371   1.408   1_455  A
C1370      H1375   1.082       .  S
C1371      C1372   1.422       .  A
C1372      C1376   1.512       .  S
C1373      C1378   1.418       .  A
C1373      C1382   1.401   1_455  A
C1374      F1390   1.382       .  S
C1374      F1391   1.383       .  S
C1374      F1392   1.385       .  S
C1376      F1387   1.384       .  S
C1376      F1388   1.382       .  S
C1376      F1389   1.373       .  S
C1378      C1379   1.407       .  A
C1378      C1383   1.520       .  S
C1379      C1380   1.401       .  A
C1379      H1384   1.083       .  S
C1380      C1381   1.414   1_455  A
C1381      C1382   1.405       .  A
C1381      C1385   1.517       .  S
C1382      H1386   1.083       .  S
C1383      F1396   1.385       .  S
C1383      F1397   1.382   1_455  S
C1383      F1398   1.381       .  S
C1385      F1393   1.382       .  S
C1385      F1394   1.383   1_655  S
C1385      F1395   1.385       .  S
C1399      C1400   1.395       .  A
C1399      C1404   1.401       .  A
C1399      H1409   1.085       .  S
C1400      C1405   1.484       .  S
C1400      C1401   1.412       .  A
C1401      C1402   1.409       .  A
C1401      C1406   1.517       .  S
C1402      C1403   1.410       .  A
C1402      H1407   1.083       .  S
C1403      C1404   1.426       .  A
C1404      C1408   1.512       .  S
C1405      C1410   1.413       .  A
C1405      C1414   1.401       .  A
C1406      F1422   1.382       .  S
C1406      F1423   1.382       .  S
C1406      F1424   1.385       .  S
C1408      F1419   1.383       .  S
C1408      F1420   1.382       .  S
C1408      F1421   1.371   1_554  S
C1410      C1411   1.404       .  A
C1410      C1415   1.522       .  S
C1411      C1412   1.410       .  A
C1411      H1416   1.082       .  S
C1412      C1413   1.427       .  A
C1413      C1414   1.412       .  A
C1413      C1417   1.521       .  S
C1414      H1418   1.083       .  S
C1415      F1428   1.384       .  S
C1415      F1429   1.382       .  S
C1415      F1430   1.382       .  S
C1417      F1425   1.384       .  S
C1417      F1426   1.383       .  S
C1417      F1427   1.385       .  S
C1431      C1432   1.400       .  A
C1431      C1436   1.405       .  A
C1431      H1441   1.085       .  S
C1432      C1437   1.484   1_556  S
C1432      C1433   1.412   1_556  A
C1433      C1434   1.405       .  A
C1433      C1438   1.519       .  S
C1434      C1435   1.408   1_554  A
C1434      H1439   1.083       .  S
C1435      C1436   1.425       .  A
C1436      C1440   1.517       .  S
C1437      C1442   1.417       .  A
C1437      C1446   1.403   1_554  A
C1438      F1454   1.382       .  S
C1438      F1455   1.382       .  S
C1438      F1456   1.384       .  S
C1440      F1451   1.383       .  S
C1440      F1452   1.379       .  S
C1440      F1453   1.374       .  S
C1442      C1443   1.407       .  A
C1442      C1447   1.520       .  S
C1443      C1444   1.402       .  A
C1443      H1448   1.083       .  S
C1444      C1445   1.415   1_554  A
C1445      C1446   1.407       .  A
C1445      C1449   1.517       .  S
C1446      H1450   1.083       .  S
C1447      F1460   1.385       .  S
C1447      F1461   1.382       .  S
C1447      F1462   1.382       .  S
C1449      F1457   1.382       .  S
C1449      F1458   1.384       .  S
C1449      F1459   1.384       .  S
C1463      C1464   1.399       .  A
C1463      C1468   1.406       .  A
C1463      H1473   1.085       .  S
C1464      C1469   1.486       .  S
C1464      C1465   1.414       .  A
C1465      C1466   1.407       .  A
C1465      C1470   1.520   1_655  S
C1466      C1467   1.407       .  A
C1466      H1471   1.081       .  S
C1467      C1468   1.427       .  A
C1468      C1472   1.521       .  S
C1469      C1474   1.415       .  A
C1469      C1478   1.401   1_655  A
C1470      F1486   1.383       .  S
C1470      F1487   1.381   1_455  S
C1470      F1488   1.385       .  S
C1472      F1483   1.384       .  S
C1472      F1484   1.383       .  S
C1472      F1485   1.379       .  S
C1474      C1475   1.406       .  A
C1474      C1479   1.519       .  S
C1475      C1476   1.407       .  A
C1475      H1480   1.083       .  S
C1476      C1477   1.422   1_655  A
C1477      C1478   1.409       .  A
C1477      C1481   1.519       .  S
C1478      H1482   1.083       .  S
C1479      F1492   1.385       .  S
C1479      F1493   1.382       .  S
C1479      F1494   1.382       .  S
C1481      F1489   1.385       .  S
C1481      F1490   1.384       .  S
C1481      F1491   1.380       .  S
C1495      C1496   1.393       .  A
C1495      C1500   1.405       .  A
C1495      H1505   1.083       .  S
C1496      C1501   1.492       .  S
C1496      C1497   1.415       .  A
C1497      C1498   1.417       .  A
C1497      C1502   1.517       .  S
C1498      C1499   1.411       .  A
C1498      H1503   1.082       .  S
C1499      C1500   1.436       .  A
C1500      C1504   1.524       .  S
C1501      C1506   1.415       .  A
C1501      C1510   1.406       .  A
C1502      F1518   1.383       .  S
C1502      F1519   1.382       .  S
C1502      F1520   1.384       .  S
C1504      F1515   1.382       .  S
C1504      F1516   1.385       .  S
C1504      F1517   1.378       .  S
C1506      C1507   1.401       .  A
C1506      C1511   1.515       .  S
C1507      C1508   1.404       .  A
C1507      H1512   1.083       .  S
C1508      C1509   1.420       .  A
C1509      C1510   1.415       .  A
C1509      C1513   1.515       .  S
C1510      H1514   1.083       .  S
C1511      F1524   1.385       .  S
C1511      F1525   1.381       .  S
C1511      F1526   1.381       .  S
C1513      F1521   1.382   1_554  S
C1513      F1522   1.383   1_554  S
C1513      F1523   1.385       .  S
C1527      C1528   1.399       .  A
C1527      C1532   1.411       .  A
C1527      H1537   1.083       .  S
C1528      C1533   1.503       .  S
C1528      C1529   1.422       .  A
C1529      C1530   1.418       .  A
C1529      C1534   1.518       .  S
C1530      C1531   1.405       .  A
C1530      H1535   1.083       .  S
C1531      C1532   1.430       .  A
C1532      C1536   1.521       .  S
C1533      C1538   1.418       .  A
C1533      C1542   1.398       .  A
C1534      F1550   1.382       .  S
C1534      F1551   1.382       .  S
C1534      F1552   1.384       .  S
C1536      F1547   1.385       .  S
C1536      F1548   1.383       .  S
C1536      F1549   1.384       .  S
C1538      C1539   1.420       .  A
C1538      C1543   1.515       .  S
C1539      C1540   1.409       .  A
C1539      H1544   1.083       .  S
C1540      C1541   1.419       .  A
C1541      C1542   1.410       .  A
C1541      C1545   1.507       .  S
C1542      H1546   1.083       .  S
C1543      F1556   1.384       .  S
C1543      F1557   1.383       .  S
C1543      F1558   1.382       .  S
C1545      F1553   1.381       .  S
C1545      F1554   1.377       .  S
C1545      F1555   1.379       .  S
C1559      C1560   1.399       .  A
C1559      C1564   1.410       .  A
C1559      H1569   1.078       .  S
C1560      C1565   1.494       .  S
C1560      C1561   1.415       .  A
C1561      C1562   1.406       .  A
C1561      C1566   1.518       .  S
C1562      C1563   1.411       .  A
C1562      H1567   1.084       .  S
C1563      C1564   1.429       .  A
C1564      C1568   1.518       .  S
C1565      C1570   1.418       .  A
C1565      C1574   1.398       .  A
C1566      F1582   1.383       .  S
C1566      F1583   1.384       .  S
C1566      F1584   1.384       .  S
C1568      F1579   1.381       .  S
C1568      F1580   1.383       .  S
C1568      F1581   1.383       .  S
C1570      C1571   1.411       .  A
C1570      C1575   1.516       .  S
C1571      C1572   1.412       .  A
C1571      H1576   1.084       .  S
C1572      C1573   1.420       .  A
C1573      C1574   1.403       .  A
C1573      C1577   1.503       .  S
C1574      H1578   1.083       .  S
C1575      F1588   1.384       .  S
C1575      F1589   1.383       .  S
C1575      F1590   1.382       .  S
C1577      F1585   1.383       .  S
C1577      F1586   1.385       .  S
C1577      F1587   1.386       .  S
C1591      C1592   1.406       .  A
C1591      C1596   1.414       .  A
C1591      H1601   1.081       .  S
C1592      C1597   1.501       .  S
C1592      C1593   1.417       .  A
C1593      C1594   1.408       .  A
C1593      C1598   1.519       .  S
C1594      C1595   1.401       .  A
C1594      H1599   1.053       .  S
C1595      C1596   1.422       .  A
C1596      C1600   1.515       .  S
C1597      C1602   1.420       .  A
C1597      C1606   1.405       .  A
C1598      F1614   1.383       .  S
C1598      F1615   1.382       .  S
C1598      F1616   1.384       .  S
C1600      F1611   1.384       .  S
C1600      F1612   1.378       .  S
C1600      F1613   1.379       .  S
C1602      C1603   1.416       .  A
C1602      C1607   1.518       .  S
C1603      C1604   1.406       .  A
C1603      H1608   1.083       .  S
C1604      C1605   1.418       .  A
C1605      C1606   1.406       .  A
C1605      C1609   1.520       .  S
C1606      H1610   1.084       .  S
C1607      F1620   1.384       .  S
C1607      F1621   1.381       .  S
C1607      F1622   1.383       .  S
C1609      F1617   1.384       .  S
C1609      F1618   1.382       .  S
C1609      F1619   1.383       .  S
C1623      C1624   1.397       .  A
C1623      C1628   1.410       .  A
C1623      H1633   1.083       .  S
C1624      C1629   1.501       .  S
C1624      C1625   1.417       .  A
C1625      C1626   1.418       .  A
C1625      C1630   1.516       .  S
C1626      C1627   1.410       .  A
C1626      H1631   1.083       .  S
C1627      C1628   1.436       .  A
C1628      C1632   1.526       .  S
C1629      C1634   1.423       .  A
C1629      C1638   1.403       .  A
C1630      F1646   1.382       .  S
C1630      F1647   1.383       .  S
C1630      F1648   1.384       .  S
C1632      F1643   1.374       .  S
C1632      F1644   1.385       .  S
C1632      F1645   1.376       .  S
C1634      C1635   1.413       .  A
C1634      C1639   1.518       .  S
C1635      C1636   1.405       .  A
C1635      H1640   1.084       .  S
C1636      C1637   1.425       .  A
C1637      C1638   1.412       .  A
C1637      C1641   1.520       .  S
C1638      H1642   1.083       .  S
C1639      F1652   1.383       .  S
C1639      F1653   1.383       .  S
C1639      F1654   1.381       .  S
C1641      F1649   1.385       .  S
C1641      F1650   1.382       .  S
C1641      F1651   1.384       .  S
C1655      C1656   1.406       .  A
C1655      C1660   1.410       .  A
C1655      H1665   1.083       .  S
C1656      C1661   1.488       .  S
C1656      C1657   1.417       .  A
C1657      C1658   1.407       .  A
C1657      C1662   1.519       .  S
C1658      C1659   1.406       .  A
C1658      H1663   1.085       .  S
C1659      C1660   1.417       .  A
C1660      C1664   1.518       .  S
C1661      C1666   1.413       .  A
C1661      C1670   1.402       .  A
C1662      F1678   1.383       .  S
C1662      F1679   1.381       .  S
C1662      F1680   1.383       .  S
C1664      F1675   1.381       .  S
C1664      F1676   1.385       .  S
C1664      F1677   1.383       .  S
C1666      C1667   1.410       .  A
C1666      C1671   1.513       .  S
C1667      C1668   1.403       .  A
C1667      H1672   1.084       .  S
C1668      C1669   1.419       .  A
C1669      C1670   1.405       .  A
C1669      C1673   1.519       .  S
C1670      H1674   1.084       .  S
C1671      F1684   1.382       .  S
C1671      F1685   1.382       .  S
C1671      F1686   1.383       .  S
C1673      F1681   1.381       .  S
C1673      F1682   1.382       .  S
C1673      F1683   1.383       .  S
C1687      C1688   1.405   1_565  A
C1687      C1692   1.411       .  A
C1687      H1697   1.083       .  S
C1688      C1693   1.493       .  S
C1688      C1689   1.419       .  A
C1689      C1690   1.410       .  A
C1689      C1694   1.519       .  S
C1690      C1691   1.401       .  A
C1690      H1695   1.083       .  S
C1691      C1692   1.415   1_545  A
C1692      C1696   1.517       .  S
C1693      C1698   1.415       .  A
C1693      C1702   1.399   1_545  A
C1694      F1710   1.382       .  S
C1694      F1711   1.382       .  S
C1694      F1712   1.384       .  S
C1696      F1707   1.384       .  S
C1696      F1708   1.383       .  S
C1696      F1709   1.383   1_565  S
C1698      C1699   1.411       .  A
C1698      C1703   1.518       .  S
C1699      C1700   1.408       .  A
C1699      H1704   1.080       .  S
C1700      C1701   1.427   1_545  A
C1701      C1702   1.406       .  A
C1701      C1705   1.519       .  S
C1702      H1706   1.085       .  S
C1703      F1716   1.385       .  S
C1703      F1717   1.382       .  S
C1703      F1718   1.382       .  S
C1705      F1713   1.383       .  S
C1705      F1714   1.378       .  S
C1705      F1715   1.383       .  S
C1719      C1720   1.403       .  A
C1719      C1724   1.409       .  A
C1719      H1729   1.084       .  S
C1720      C1725   1.485       .  S
C1720      C1721   1.413   1_556  A
C1721      C1722   1.402       .  A
C1721      C1726   1.516       .  S
C1722      C1723   1.405   1_554  A
C1722      H1727   1.083       .  S
C1723      C1724   1.420       .  A
C1724      C1728   1.519       .  S
C1725      C1730   1.416       .  A
C1725      C1734   1.400       .  A
C1726      F1742   1.382       .  S
C1726      F1743   1.377       .  S
C1726      F1744   1.385       .  S
C1728      F1739   1.384       .  S
C1728      F1740   1.384       .  S
C1728      F1741   1.382       .  S
C1730      C1731   1.405       .  A
C1730      C1735   1.520       .  S
C1731      C1732   1.401       .  A
C1731      H1736   1.077       .  S
C1732      C1733   1.422       .  A
C1733      C1734   1.405       .  A
C1733      C1737   1.519   1_566  S
C1734      H1738   1.084   1_556  S
C1735      F1748   1.384       .  S
C1735      F1749   1.382       .  S
C1735      F1750   1.383       .  S
C1737      F1745   1.383       .  S
C1737      F1746   1.381       .  S
C1737      F1747   1.383   1_545  S
C1751      C1752   1.399       .  A
C1751      C1756   1.406       .  A
C1751      H1761   1.085       .  S
C1752      C1757   1.488       .  S
C1752      C1753   1.414   1_556  A
C1753      C1754   1.410   1_554  A
C1753      C1758   1.519       .  S
C1754      C1755   1.408       .  A
C1754      H1759   1.082   1_556  S
C1755      C1756   1.423       .  A
C1756      C1760   1.514       .  S
C1757      C1762   1.418   1_556  A
C1757      C1766   1.402       .  A
C1758      F1774   1.382       .  S
C1758      F1775   1.381       .  S
C1758      F1776   1.384       .  S
C1760      F1771   1.382       .  S
C1760      F1772   1.382       .  S
C1760      F1773   1.374       .  S
C1762      C1763   1.410       .  A
C1762      C1767   1.519       .  S
C1763      C1764   1.403   1_554  A
C1763      H1768   1.083       .  S
C1764      C1765   1.417       .  A
C1765      C1766   1.408       .  A
C1765      C1769   1.518       .  S
C1766      H1770   1.083       .  S
C1767      F1780   1.385       .  S
C1767      F1781   1.382       .  S
C1767      F1782   1.381       .  S
C1769      F1777   1.382       .  S
C1769      F1778   1.383       .  S
C1769      F1779   1.383       .  S
C1783      C1784   1.399       .  A
C1783      C1788   1.404       .  A
C1783      H1793   1.085       .  S
C1784      C1789   1.481       .  S
C1784      C1785   1.410       .  A
C1785      C1786   1.406       .  A
C1785      C1790   1.518       .  S
C1786      C1787   1.408       .  A
C1786      H1791   1.083       .  S
C1787      C1788   1.423       .  A
C1788      C1792   1.514       .  S
C1789      C1794   1.413       .  A
C1789      C1798   1.404       .  A
C1790      F1806   1.383       .  S
C1790      F1807   1.381       .  S
C1790      F1808   1.384       .  S
C1792      F1803   1.382       .  S
C1792      F1804   1.383       .  S
C1792      F1805   1.373       .  S
C1794      C1795   1.402       .  A
C1794      C1799   1.523       .  S
C1795      C1796   1.406       .  A
C1795      H1800   1.082       .  S
C1796      C1797   1.421       .  A
C1797      C1798   1.412       .  A
C1797      C1801   1.518       .  S
C1798      H1802   1.083       .  S
C1799      F1812   1.384       .  S
C1799      F1813   1.382       .  S
C1799      F1814   1.381       .  S
C1801      F1809   1.385       .  S
C1801      F1810   1.383       .  S
C1801      F1811   1.383       .  S
C1815      C1816   1.400       .  A
C1815      C1820   1.403       .  A
C1815      H1825   1.077       .  S
C1816      C1821   1.489       .  S
C1816      C1817   1.421       .  A
C1817      C1818   1.407       .  A
C1817      C1822   1.517       .  S
C1818      C1819   1.403       .  A
C1818      H1823   1.085       .  S
C1819      C1820   1.416       .  A
C1820      C1824   1.517       .  S
C1821      C1826   1.418       .  A
C1821      C1830   1.401       .  A
C1822      F1838   1.383       .  S
C1822      F1839   1.378       .  S
C1822      F1840   1.384       .  S
C1824      F1835   1.384       .  S
C1824      F1836   1.383       .  S
C1824      F1837   1.381       .  S
C1826      C1827   1.407       .  A
C1826      C1831   1.519       .  S
C1827      C1828   1.404       .  A
C1827      H1832   1.082       .  S
C1828      C1829   1.423       .  A
C1829      C1830   1.405       .  A
C1829      C1833   1.516   1_554  S
C1830      H1834   1.085       .  S
C1831      F1844   1.385       .  S
C1831      F1845   1.381       .  S
C1831      F1846   1.383       .  S
C1833      F1841   1.381       .  S
C1833      F1842   1.378       .  S
C1833      F1843   1.383       .  S
C1847      C1848   1.403       .  A
C1847      C1852   1.413       .  A
C1847      H1857   1.082       .  S
C1848      C1853   1.489       .  S
C1848      C1849   1.417   1_545  A
C1849      C1850   1.404       .  A
C1849      C1854   1.515       .  S
C1850      C1851   1.402       .  A
C1850      H1855   1.082       .  S
C1851      C1852   1.423   1_565  A
C1852      C1856   1.519       .  S
C1853      C1858   1.414       .  A
C1853      C1862   1.398   1_545  A
C1854      F1870   1.383       .  S
C1854      F1871   1.381       .  S
C1854      F1872   1.382       .  S
C1856      F1867   1.384       .  S
C1856      F1868   1.384       .  S
C1856      F1869   1.383       .  S
C1858      C1859   1.410       .  A
C1858      C1863   1.516       .  S
C1859      C1860   1.408   1_545  A
C1859      H1864   1.083       .  S
C1860      C1861   1.424       .  A
C1861      C1862   1.407       .  A
C1861      C1865   1.511   1_554  S
C1862      H1866   1.085       .  S
C1863      F1876   1.384       .  S
C1863      F1877   1.383       .  S
C1863      F1878   1.383       .  S
C1865      F1873   1.382       .  S
C1865      F1874   1.374       .  S
C1865      F1875   1.382       .  S
C1879      C1880   1.404       .  A
C1879      C1884   1.406       .  A
C1879      H1889   1.084       .  S
C1880      C1885   1.482       .  S
C1880      C1881   1.413       .  A
C1881      C1882   1.407       .  A
C1881      C1886   1.520       .  S
C1882      C1883   1.407       .  A
C1882      H1887   1.083       .  S
C1883      C1884   1.415       .  A
C1884      C1888   1.518       .  S
C1885      C1890   1.415       .  A
C1885      C1894   1.405       .  A
C1886      F1902   1.382       .  S
C1886      F1903   1.381       .  S
C1886      F1904   1.384       .  S
C1888      F1899   1.382       .  S
C1888      F1900   1.385       .  S
C1888      F1901   1.384       .  S
C1890      C1891   1.404       .  A
C1890      C1895   1.520       .  S
C1891      C1892   1.404       .  A
C1891      H1896   1.083       .  S
C1892      C1893   1.415       .  A
C1893      C1894   1.405       .  A
C1893      C1897   1.518       .  S
C1894      H1898   1.084       .  S
C1895      F1908   1.383       .  S
C1895      F1909   1.379       .  S
C1895      F1910   1.381       .  S
C1897      F1905   1.380       .  S
C1897      F1906   1.383       .  S
C1897      F1907   1.384       .  S
C1911      C1912   1.404       .  A
C1911      C1916   1.416       .  A
C1911      H1921   1.082       .  S
C1912      C1917   1.501       .  S
C1912      C1913   1.418       .  A
C1913      C1914   1.409       .  A
C1913      C1918   1.521       .  S
C1914      C1915   1.407       .  A
C1914      H1919   1.079       .  S
C1915      C1916   1.426       .  A
C1916      C1920   1.517       .  S
C1917      C1922   1.415       .  A
C1917      C1926   1.399       .  A
C1918      F1934   1.382       .  S
C1918      F1935   1.383       .  S
C1918      F1936   1.384       .  S
C1920      F1931   1.383       .  S
C1920      F1932   1.385       .  S
C1920      F1933   1.383       .  S
C1922      C1923   1.412       .  A
C1922      C1927   1.519       .  S
C1923      C1924   1.412       .  A
C1923      H1928   1.080       .  S
C1924      C1925   1.433       .  A
C1925      C1926   1.414       .  A
C1925      C1929   1.521       .  S
C1926      H1930   1.083       .  S
C1927      F1940   1.382       .  S
C1927      F1941   1.380       .  S
C1927      F1942   1.385       .  S
C1929      F1937   1.385       .  S
C1929      F1938   1.383       .  S
C1929      F1939   1.382       .  S
C1943      C1944   1.398       .  A
C1943      C1948   1.407       .  A
C1943      H1953   1.085       .  S
C1944      C1949   1.500       .  S
C1944      C1945   1.420       .  A
C1945      C1946   1.419       .  A
C1945      C1950   1.518       .  S
C1946      C1947   1.407       .  A
C1946      H1951   1.083       .  S
C1947      C1948   1.422       .  A
C1948      C1952   1.509       .  S
C1949      C1954   1.418       .  A
C1949      C1958   1.406       .  A
C1950      F1966   1.382       .  S
C1950      F1967   1.382       .  S
C1950      F1968   1.385       .  S
C1952      F1963   1.384       .  S
C1952      F1964   1.381       .  S
C1952      F1965   1.375       .  S
C1954      C1955   1.414       .  A
C1954      C1959   1.519       .  S
C1955      C1956   1.407       .  A
C1955      H1960   1.083       .  S
C1956      C1957   1.416       .  A
C1957      C1958   1.413       .  A
C1957      C1961   1.516       .  S
C1958      H1962   1.083       .  S
C1959      F1972   1.385       .  S
C1959      F1973   1.382       .  S
C1959      F1974   1.382       .  S
C1961      F1969   1.384       .  S
C1961      F1970   1.383       .  S
C1961      F1971   1.383       .  S
C1975      C1976   1.402       .  A
C1975      C1980   1.411       .  A
C1975      H1985   1.085       .  S
C1976      C1981   1.503       .  S
C1976      C1977   1.419       .  A
C1977      C1978   1.417       .  A
C1977      C1982   1.519       .  S
C1978      C1979   1.410       .  A
C1978      H1983   1.083       .  S
C1979      C1980   1.428       .  A
C1980      C1984   1.521       .  S
C1981      C1986   1.420       .  A
C1981      C1990   1.401       .  A
C1982      F1998   1.382       .  S
C1982      F1999   1.382       .  S
C1982      F2000   1.385       .  S
C1984      F1995   1.384       .  S
C1984      F1996   1.377       .  S
C1984      F1997   1.382       .  S
C1986      C1987   1.418       .  A
C1986      C1991   1.518       .  S
C1987      C1988   1.407       .  A
C1987      H1992   1.083       .  S
C1988      C1989   1.428       .  A
C1989      C1990   1.411       .  A
C1989      C1993   1.521       .  S
C1990      H1994   1.083       .  S
C1991      F2004   1.385       .  S
C1991      F2005   1.382       .  S
C1991      F2006   1.382       .  S
C1993      F2001   1.385       .  S
C1993      F2002   1.383       .  S
C1993      F2003   1.384       .  S
C2007      C2008   1.408       .  A
C2007      C2012   1.415       .  A
C2007      H2017   1.083       .  S
C2008      C2013   1.485       .  S
C2008      C2009   1.414       .  A
C2009      C2010   1.397       .  A
C2009      C2014   1.516       .  S
C2010      C2011   1.402       .  A
C2010      H2015   1.085       .  S
C2011      C2012   1.416       .  A
C2012      C2016   1.515       .  S
C2013      C2018   1.414       .  A
C2013      C2022   1.402       .  A
C2014      F2030   1.382       .  S
C2014      F2031   1.381       .  S
C2014      F2032   1.384       .  S
C2016      F2027   1.383       .  S
C2016      F2028   1.385       .  S
C2016      F2029   1.380       .  S
C2018      C2019   1.411       .  A
C2018      C2023   1.516       .  S
C2019      C2020   1.405       .  A
C2019      H2024   1.083       .  S
C2020      C2021   1.417       .  A
C2021      C2022   1.406       .  A
C2021      C2025   1.520       .  S
C2022      H2026   1.084       .  S
C2023      F2036   1.384       .  S
C2023      F2037   1.382       .  S
C2023      F2038   1.383       .  S
C2025      F2033   1.385       .  S
C2025      F2034   1.382       .  S
C2025      F2035   1.383       .  S
C2039      C2040   1.397       .  A
C2039      C2044   1.408       .  A
C2039      H2049   1.083       .  S
C2040      C2045   1.499       .  S
C2040      C2041   1.417       .  A
C2041      C2042   1.420       .  A
C2041      C2046   1.519       .  S
C2042      C2043   1.413       .  A
C2042      H2047   1.082       .  S
C2043      C2044   1.434       .  A
C2044      C2048   1.524       .  S
C2045      C2050   1.414       .  A
C2045      C2054   1.406       .  A
C2046      F2062   1.382       .  S
C2046      F2063   1.379       .  S
C2046      F2064   1.384       .  S
C2048      F2059   1.385       .  S
C2048      F2060   1.383       .  S
C2048      F2061   1.377       .  S
C2050      C2051   1.410       .  A
C2050      C2055   1.523       .  S
C2051      C2052   1.415       .  A
C2051      H2056   1.082       .  S
C2052      C2053   1.425       .  A
C2053      C2054   1.417       .  A
C2053      C2057   1.517       .  S
C2054      H2058   1.079       .  S
C2055      F2068   1.384       .  S
C2055      F2069   1.383       .  S
C2055      F2070   1.380       .  S
C2057      F2065   1.385       .  S
C2057      F2066   1.383       .  S
C2057      F2067   1.378       .  S
C2071      C2072   1.398       .  A
C2071      C2076   1.415       .  A
C2071      H2081   1.083       .  S
C2072      C2077   1.508       .  S
C2072      C2073   1.423       .  A
C2073      C2074   1.418       .  A
C2073      C2078   1.516       .  S
C2074      C2075   1.410       .  A
C2074      H2079   1.084       .  S
C2075      C2076   1.439       .  A
C2076      C2080   1.520       .  S
C2077      C2082   1.420       .  A
C2077      C2086   1.389       .  A
C2078      F2094   1.383       .  S
C2078      F2095   1.382       .  S
C2078      F2096   1.383       .  S
C2080      F2091   1.383       .  S
C2080      F2092   1.385       .  S
C2080      F2093   1.379       .  S
C2082      C2083   1.427       .  A
C2082      C2087   1.514       .  S
C2083      C2084   1.413       .  A
C2083      H2088   1.082       .  S
C2084      C2085   1.448       .  A
C2085      C2086   1.407       .  A
C2085      C2089   1.524       .  S
C2086      H2090   1.083       .  S
C2087      F2100   1.384       .  S
C2087      F2101   1.382       .  S
C2087      F2102   1.383       .  S
C2089      F2097   1.379       .  S
C2089      F2098   1.377       .  S
C2089      F2099   1.385       .  S
C2103      C2104   1.394       .  A
C2103      C2108   1.401       .  A
C2103      H2113   1.084       .  S
C2104      C2109   1.493       .  S
C2104      C2105   1.417       .  A
C2105      C2106   1.418       .  A
C2105      C2110   1.516       .  S
C2106      C2107   1.410       .  A
C2106      H2111   1.083       .  S
C2107      C2108   1.430       .  A
C2108      C2112   1.520       .  S
C2109      C2114   1.419       .  A
C2109      C2118   1.400       .  A
C2110      F2126   1.382       .  S
C2110      F2127   1.382       .  S
C2110      F2128   1.385       .  S
C2112      F2123   1.385       .  S
C2112      F2124   1.372       .  S
C2112      F2125   1.382       .  S
C2114      C2115   1.410       .  A
C2114      C2119   1.520       .  S
C2115      C2116   1.405       .  A
C2115      H2120   1.082       .  S
C2116      C2117   1.427       .  A
C2117      C2118   1.411       .  A
C2117      C2121   1.519       .  S
C2118      H2122   1.083       .  S
C2119      F2132   1.383       .  S
C2119      F2133   1.382       .  S
C2119      F2134   1.382       .  S
C2121      F2129   1.385       .  S
C2121      F2130   1.383       .  S
C2121      F2131   1.384       .  S
C2135      C2136   1.405       .  A
C2135      C2140   1.416       .  A
C2135      H2145   1.083       .  S
C2136      C2141   1.491       .  S
C2136      C2137   1.414       .  A
C2137      C2138   1.402       .  A
C2137      C2142   1.516       .  S
C2138      C2139   1.400       .  A
C2138      H2143   1.081       .  S
C2139      C2140   1.426       .  A
C2140      C2144   1.525       .  S
C2141      C2146   1.419       .  A
C2141      C2150   1.397       .  A
C2142      F2158   1.382       .  S
C2142      F2159   1.381       .  S
C2142      F2160   1.384       .  S
C2144      F2155   1.381       .  S
C2144      F2156   1.385       .  S
C2144      F2157   1.383       .  S
C2146      C2147   1.413       .  A
C2146      C2151   1.519       .  S
C2147      C2148   1.407       .  A
C2147      H2152   1.083       .  S
C2148      C2149   1.427       .  A
C2149      C2150   1.409       .  A
C2149      C2153   1.519       .  S
C2150      H2154   1.084       .  S
C2151      F2164   1.384       .  S
C2151      F2165   1.381       .  S
C2151      F2166   1.383       .  S
C2153      F2161   1.385       .  S
C2153      F2162   1.383       .  S
C2153      F2163   1.383       .  S
C2167      C2168   1.393       .  A
C2167      C2172   1.404       .  A
C2167      H2177   1.083       .  S
C2168      C2173   1.486       .  S
C2168      C2169   1.411       .  A
C2169      C2170   1.415       .  A
C2169      C2174   1.519       .  S
C2170      C2171   1.416       .  A
C2170      H2175   1.082       .  S
C2171      C2172   1.430       .  A
C2172      C2176   1.512       .  S
C2173      C2178   1.414       .  A
C2173      C2182   1.404       .  A
C2174      F2190   1.383       .  S
C2174      F2191   1.382       .  S
C2174      F2192   1.384       .  S
C2176      F2187   1.383       .  S
C2176      F2188   1.385       .  S
C2176      F2189   1.375       .  S
C2178      C2179   1.403       .  A
C2178      C2183   1.522       .  S
C2179      C2180   1.407       .  A
C2179      H2184   1.082       .  S
C2180      C2181   1.424       .  A
C2181      C2182   1.413       .  A
C2181      C2185   1.520       .  S
C2182      H2186   1.083       .  S
C2183      F2196   1.384       .  S
C2183      F2197   1.382       .  S
C2183      F2198   1.381       .  S
C2185      F2193   1.383       .  S
C2185      F2194   1.384       .  S
C2185      F2195   1.384       .  S
C2199      C2200   1.407       .  A
C2199      C2204   1.404       .  A
C2199      H2209   1.084       .  S
C2200      C2205   1.482       .  S
C2200      C2201   1.415       .  A
C2201      C2202   1.400       .  A
C2201      C2206   1.517       .  S
C2202      C2203   1.400       .  A
C2202      H2207   1.083       .  S
C2203      C2204   1.409       .  A
C2204      C2208   1.514       .  S
C2205      C2210   1.418       .  A
C2205      C2214   1.398       .  A
C2206      F2222   1.382       .  S
C2206      F2223   1.381       .  S
C2206      F2224   1.386       .  S
C2208      F2219   1.379       .  S
C2208      F2220   1.383       .  S
C2208      F2221   1.383       .  S
C2210      C2211   1.411       .  A
C2210      C2215   1.522       .  S
C2211      C2212   1.404       .  A
C2211      H2216   1.083       .  S
C2212      C2213   1.420       .  A
C2213      C2214   1.407       .  A
C2213      C2217   1.516       .  S
C2214      H2218   1.083       .  S
C2215      F2228   1.384       .  S
C2215      F2229   1.383       .  S
C2215      F2230   1.383       .  S
C2217      F2225   1.382       .  S
C2217      F2226   1.383       .  S
C2217      F2227   1.385       .  S
C2231      C2232   1.403       .  A
C2231      C2236   1.404       .  A
C2231      H2241   1.083       .  S
C2232      C2237   1.478       .  S
C2232      C2233   1.415       .  A
C2233      C2234   1.399       .  A
C2233      C2238   1.521       .  S
C2234      C2235   1.403       .  A
C2234      H2239   1.084       .  S
C2235      C2236   1.412       .  A
C2236      C2240   1.518       .  S
C2237      C2242   1.410       .  A
C2237      C2246   1.401       .  A
C2238      F2254   1.381       .  S
C2238      F2255   1.382       .  S
C2238      F2256   1.385       .  S
C2240      F2251   1.384       .  S
C2240      F2252   1.382       .  S
C2240      F2253   1.383       .  S
C2242      C2243   1.402       .  A
C2242      C2247   1.521       .  S
C2243      C2244   1.409       .  A
C2243      H2248   1.083       .  S
C2244      C2245   1.420       .  A
C2245      C2246   1.407       .  A
C2245      C2249   1.514       .  S
C2246      H2250   1.083       .  S
C2247      F2260   1.384       .  S
C2247      F2261   1.382       .  S
C2247      F2262   1.384       .  S
C2249      F2257   1.376       .  S
C2249      F2258   1.383       .  S
C2249      F2259   1.385       .  S
C2263      C2264   1.396       .  A
C2263      C2268   1.408       .  A
C2263      H2273   1.083       .  S
C2264      C2269   1.487       .  S
C2264      C2265   1.411       .  A
C2265      C2266   1.407       .  A
C2265      C2270   1.518       .  S
C2266      C2267   1.410       .  A
C2266      H2271   1.076       .  S
C2267      C2268   1.435       .  A
C2268      C2272   1.523       .  S
C2269      C2274   1.414       .  A
C2269      C2278   1.402       .  A
C2270      F2286   1.382       .  S
C2270      F2287   1.382       .  S
C2270      F2288   1.385       .  S
C2272      F2283   1.381       .  S
C2272      F2284   1.385       .  S
C2272      F2285   1.384       .  S
C2274      C2275   1.405       .  A
C2274      C2279   1.521       .  S
C2275      C2276   1.408       .  A
C2275      H2280   1.083       .  S
C2276      C2277   1.423       .  A
C2277      C2278   1.413       .  A
C2277      C2281   1.518       .  S
C2278      H2282   1.083       .  S
C2279      F2292   1.384       .  S
C2279      F2293   1.383       .  S
C2279      F2294   1.382       .  S
C2281      F2289   1.385       .  S
C2281      F2290   1.383       .  S
C2281      F2291   1.383       .  S
C2295      C2296   1.402       .  A
C2295      C2300   1.413       .  A
C2295      H2305   1.083       .  S
C2296      C2301   1.498       .  S
C2296      C2297   1.421       .  A
C2297      C2298   1.415       .  A
C2297      C2302   1.520       .  S
C2298      C2299   1.403       .  A
C2298      H2303   1.083       .  S
C2299      C2300   1.421       .  A
C2300      C2304   1.520       .  S
C2301      C2306   1.417       .  A
C2301      C2310   1.400       .  A
C2302      F2318   1.382       .  S
C2302      F2319   1.382       .  S
C2302      F2320   1.384       .  S
C2304      F2315   1.382       .  S
C2304      F2316   1.384       .  S
C2304      F2317   1.384       .  S
C2306      C2307   1.414       .  A
C2306      C2311   1.517       .  S
C2307      C2308   1.407       .  A
C2307      H2312   1.083       .  S
C2308      C2309   1.425       .  A
C2309      C2310   1.410       .  A
C2309      C2313   1.514       .  S
C2310      H2314   1.085       .  S
C2311      F2324   1.385       .  S
C2311      F2325   1.383       .  S
C2311      F2326   1.382       .  S
C2313      F2321   1.385       .  S
C2313      F2322   1.380       .  S
C2313      F2323   1.382       .  S
C2327      C2328   1.396       .  A
C2327      C2332   1.400       .  A
C2327      H2337   1.084       .  S
C2328      C2333   1.471       .  S
C2328      C2329   1.414       .  A
C2329      C2330   1.404       .  A
C2329      C2334   1.518       .  S
C2330      C2331   1.405       .  A
C2330      H2335   1.083       .  S
C2331      C2332   1.420       .  A
C2332      C2336   1.516       .  S
C2333      C2338   1.412       .  A
C2333      C2342   1.402       .  A
C2334      F2350   1.382       .  S
C2334      F2351   1.382       .  S
C2334      F2352   1.384       .  S
C2336      F2347   1.386       .  S
C2336      F2348   1.382       .  S
C2336      F2349   1.383       .  S
C2338      C2339   1.399       .  A
C2338      C2343   1.519       .  S
C2339      C2340   1.407       .  A
C2339      H2344   1.083       .  S
C2340      C2341   1.416       .  A
C2341      C2342   1.399       .  A
C2341      C2345   1.523       .  S
C2342      H2346   1.083       .  S
C2343      F2356   1.386       .  S
C2343      F2357   1.381       .  S
C2343      F2358   1.382       .  S
C2345      F2353   1.383       .  S
C2345      F2354   1.384       .  S
C2345      F2355   1.383       .  S
C2359      C2360   1.400       .  A
C2359      C2364   1.409       .  A
C2359      H2369   1.083       .  S
C2360      C2365   1.494       .  S
C2360      C2361   1.420       .  A
C2361      C2362   1.416       .  A
C2361      C2366   1.520       .  S
C2362      C2363   1.406       .  A
C2362      H2367   1.083       .  S
C2363      C2364   1.420       .  A
C2364      C2368   1.516       .  S
C2365      C2370   1.416       .  A
C2365      C2374   1.405       .  A
C2366      F2382   1.383       .  S
C2366      F2383   1.383       .  S
C2366      F2384   1.384       .  S
C2368      F2379   1.385       .  S
C2368      F2380   1.381       .  S
C2368      F2381   1.383       .  S
C2370      C2371   1.404       .  A
C2370      C2375   1.516       .  S
C2371      C2372   1.407       .  A
C2371      H2376   1.082       .  S
C2372      C2373   1.417       .  A
C2373      C2374   1.410       .  A
C2373      C2377   1.513       .  S
C2374      H2378   1.084       .  S
C2375      F2388   1.385       .  S
C2375      F2389   1.381       .  S
C2375      F2390   1.378       .  S
C2377      F2385   1.383       .  S
C2377      F2386   1.384       .  S
C2377      F2387   1.379       .  S
C2391      C2392   1.405       .  A
C2391      C2396   1.410       .  A
C2391      H2401   1.083       .  S
C2392      C2397   1.483       .  S
C2392      C2393   1.415       .  A
C2393      C2394   1.402       .  A
C2393      C2398   1.519       .  S
C2394      C2395   1.401       .  A
C2394      H2399   1.080       .  S
C2395      C2396   1.412       .  A
C2396      C2400   1.509       .  S
C2397      C2402   1.414       .  A
C2397      C2406   1.403       .  A
C2398      F2414   1.382       .  S
C2398      F2415   1.382       .  S
C2398      F2416   1.385       .  S
C2400      F2411   1.385       .  S
C2400      F2412   1.380       .  S
C2400      F2413   1.384       .  S
C2402      C2403   1.411       .  A
C2402      C2407   1.518       .  S
C2403      C2404   1.407       .  A
C2403      H2408   1.083       .  S
C2404      C2405   1.412       .  A
C2405      C2406   1.404       .  A
C2405      C2409   1.516       .  S
C2406      H2410   1.084       .  S
C2407      F2420   1.384       .  S
C2407      F2421   1.382       .  S
C2407      F2422   1.382       .  S
C2409      F2417   1.384       .  S
C2409      F2418   1.383       .  S
C2409      F2419   1.380       .  S
C2423      C2424   1.395       .  A
C2423      C2428   1.402       .  A
C2423      H2433   1.084       .  S
C2424      C2429   1.491       .  S
C2424      C2425   1.417       .  A
C2425      C2426   1.415       .  A
C2425      C2430   1.518       .  S
C2426      C2427   1.410       .  A
C2426      H2431   1.082       .  S
C2427      C2428   1.432       .  A
C2428      C2432   1.526       .  S
C2429      C2434   1.413       .  A
C2429      C2438   1.403       .  A
C2430      F2446   1.382       .  S
C2430      F2447   1.382       .  S
C2430      F2448   1.385       .  S
C2432      F2443   1.385       .  S
C2432      F2444   1.380       .  S
C2432      F2445   1.378       .  S
C2434      C2435   1.404       .  A
C2434      C2439   1.522       .  S
C2435      C2436   1.413       .  A
C2435      H2440   1.082       .  S
C2436      C2437   1.423       .  A
C2437      C2438   1.414       .  A
C2437      C2441   1.509       .  S
C2438      H2442   1.083       .  S
C2439      F2452   1.385       .  S
C2439      F2453   1.380       .  S
C2439      F2454   1.383       .  S
C2441      F2449   1.376       .  S
C2441      F2450   1.383       .  S
C2441      F2451   1.385       .  S
C2455      C2456   1.405       .  A
C2455      C2460   1.417       .  A
C2455      H2465   1.083       .  S
C2456      C2461   1.500       .  S
C2456      C2457   1.414       .  A
C2457      C2458   1.410       .  A
C2457      C2462   1.520       .  S
C2458      C2459   1.412       .  A
C2458      H2463   1.082       .  S
C2459      C2460   1.423       .  A
C2460      C2464   1.515       .  S
C2461      C2466   1.415       .  A
C2461      C2470   1.403       .  A
C2462      F2478   1.382       .  S
C2462      F2479   1.383       .  S
C2462      F2480   1.384       .  S
C2464      F2475   1.382       .  S
C2464      F2476   1.384       .  S
C2464      F2477   1.382       .  S
C2466      C2467   1.409       .  A
C2466      C2471   1.521       .  S
C2467      C2468   1.411       .  A
C2467      H2472   1.080       .  S
C2468      C2469   1.428       .  A
C2469      C2470   1.416       .  A
C2469      C2473   1.521       .  S
C2470      H2474   1.082       .  S
C2471      F2484   1.383       .  S
C2471      F2485   1.382       .  S
C2471      F2486   1.382       .  S
C2473      F2481   1.382       .  S
C2473      F2482   1.383       .  S
C2473      F2483   1.385       .  S
C2487      C2488   1.410       .  A
C2487      C2492   1.422       .  A
C2487      H2497   1.083       .  S
C2488      C2493   1.499       .  S
C2488      C2489   1.412       .  A
C2489      C2490   1.403       .  A
C2489      C2494   1.523       .  S
C2490      C2491   1.412       .  A
C2490      H2495   1.079       .  S
C2491      C2492   1.420       .  A
C2492      C2496   1.515       .  S
C2493      C2498   1.415       .  A
C2493      C2502   1.403       .  A
C2494      F2510   1.382       .  S
C2494      F2511   1.383       .  S
C2494      F2512   1.384       .  S
C2496      F2507   1.384       .  S
C2496      F2508   1.383       .  S
C2496      F2509   1.381       .  S
C2498      C2499   1.410       .  A
C2498      C2503   1.521       .  S
C2499      C2500   1.412       .  A
C2499      H2504   1.082       .  S
C2500      C2501   1.429       .  A
C2501      C2502   1.417       .  A
C2501      C2505   1.520       .  S
C2502      H2506   1.083       .  S
C2503      F2516   1.385       .  S
C2503      F2517   1.382       .  S
C2503      F2518   1.383       .  S
C2505      F2513   1.383       .  S
C2505      F2514   1.383       .  S
C2505      F2515   1.383       .  S
C2519      C2520   1.399       .  A
C2519      C2524   1.403       .  A
C2519      H2529   1.085       .  S
C2520      C2525   1.484       .  S
C2520      C2521   1.420       .  A
C2521      C2522   1.409       .  A
C2521      C2526   1.518       .  S
C2522      C2523   1.405       .  A
C2522      H2527   1.084       .  S
C2523      C2524   1.421       .  A
C2524      C2528   1.517       .  S
C2525      C2530   1.412       .  A
C2525      C2534   1.404       .  A
C2526      F2542   1.380       .  S
C2526      F2543   1.384       .  S
C2526      F2544   1.383       .  S
C2528      F2539   1.385       .  S
C2528      F2540   1.380       .  S
C2528      F2541   1.384       .  S
C2530      C2531   1.407       .  A
C2530      C2535   1.523       .  S
C2531      C2532   1.410       .  A
C2531      H2536   1.083       .  S
C2532      C2533   1.419       .  A
C2533      C2534   1.412       .  A
C2533      C2537   1.517       .  S
C2534      H2538   1.083       .  S
C2535      F2548   1.385       .  S
C2535      F2549   1.379       .  S
C2535      F2550   1.380       .  S
C2537      F2545   1.385       .  S
C2537      F2546   1.383       .  S
C2537      F2547   1.383       .  S
C2551      C2552   1.397       .  A
C2551      C2556   1.403       .  A
C2551      H2561   1.085       .  S
C2552      C2557   1.491       .  S
C2552      C2553   1.417       .  A
C2553      C2554   1.410       .  A
C2553      C2558   1.512       .  S
C2554      C2555   1.404       .  A
C2554      H2559   1.083       .  S
C2555      C2556   1.424       .  A
C2556      C2560   1.519       .  S
C2557      C2562   1.415       .  A
C2557      C2566   1.406       .  A
C2558      F2574   1.382       .  S
C2558      F2575   1.379       .  S
C2558      F2576   1.385       .  S
C2560      F2571   1.385       .  S
C2560      F2572   1.382       .  S
C2560      F2573   1.382       .  S
C2562      C2563   1.403       .  A
C2562      C2567   1.523       .  S
C2563      C2564   1.408       .  A
C2563      H2568   1.082       .  S
C2564      C2565   1.419       .  A
C2565      C2566   1.415       .  A
C2565      C2569   1.516       .  S
C2566      H2570   1.083       .  S
C2567      F2580   1.381       .  S
C2567      F2581   1.382       .  S
C2567      F2582   1.384       .  S
C2569      F2577   1.384       .  S
C2569      F2578   1.384       .  S
C2569      F2579   1.383       .  S
C2583      C2584   1.406       .  A
C2583      C2588   1.419       .  A
C2583      H2593   1.083       .  S
C2584      C2589   1.499       .  S
C2584      C2585   1.412       .  A
C2585      C2586   1.408       .  A
C2585      C2590   1.521       .  S
C2586      C2587   1.413       .  A
C2586      H2591   1.082       .  S
C2587      C2588   1.425       .  A
C2588      C2592   1.518       .  S
C2589      C2594   1.415       .  A
C2589      C2598   1.401       .  A
C2590      F2606   1.382       .  S
C2590      F2607   1.382       .  S
C2590      F2608   1.384       .  S
C2592      F2603   1.383       .  S
C2592      F2604   1.385       .  S
C2592      F2605   1.383       .  S
C2594      C2595   1.413       .  A
C2594      C2599   1.516       .  S
C2595      C2596   1.408       .  A
C2595      H2600   1.082       .  S
C2596      C2597   1.430       .  A
C2597      C2598   1.415       .  A
C2597      C2601   1.521       .  S
C2598      H2602   1.083       .  S
C2599      F2612   1.382       .  S
C2599      F2613   1.382       .  S
C2599      F2614   1.379       .  S
C2601      F2609   1.381       .  S
C2601      F2610   1.383       .  S
C2601      F2611   1.385       .  S
C2615      C2616   1.406       .  A
C2615      C2620   1.412       .  A
C2615      H2625   1.083       .  S
C2616      C2621   1.498       .  S
C2616      C2617   1.418       .  A
C2617      C2618   1.413       .  A
C2617      C2622   1.519       .  S
C2618      C2619   1.405       .  A
C2618      H2623   1.083       .  S
C2619      C2620   1.415       .  A
C2620      C2624   1.516       .  S
C2621      C2626   1.419       .  A
C2621      C2630   1.401       .  A
C2622      F2638   1.382       .  S
C2622      F2639   1.382       .  S
C2622      F2640   1.384       .  S
C2624      F2635   1.384       .  S
C2624      F2636   1.384       .  S
C2624      F2637   1.383       .  S
C2626      C2627   1.412       .  A
C2626      C2631   1.518       .  S
C2627      C2628   1.405       .  A
C2627      H2632   1.083       .  S
C2628      C2629   1.420       .  A
C2629      C2630   1.409       .  A
C2629      C2633   1.512       .  S
C2630      H2634   1.084       .  S
C2631      F2644   1.385       .  S
C2631      F2645   1.382       .  S
C2631      F2646   1.382       .  S
C2633      F2641   1.379       .  S
C2633      F2642   1.378       .  S
C2633      F2643   1.383       .  S
