geometry optimzed in LAMMPS
_audit_creation_date              2020-11-30 
_audit_creation_method            'lammps2cif' 
_symmetry_space_group_name_H-M    'P1' 
_symmetry_Int_Tables_number       1 
_symmetry_cell_setting            triclinic 
loop_ 
_symmetry_equiv_pos_as_xyz 
  x,y,z 
_cell_length_a                    36.79302569 
_cell_length_b                    36.75977312623797 
_cell_length_c                    36.753352147235354 
_cell_angle_alpha                 89.97828474826017 
_cell_angle_beta                  90.46994610347264 
_cell_angle_gamma                 89.23303805329134 
loop_ 
_atom_site_label 
_atom_site_type_symbol 
_atom_site_fract_x 
_atom_site_fract_y 
_atom_site_fract_z 
_atom_site_charge 
O1          O  0.30405154  0.69029605  0.74700019    -0.78300
O2          O  0.30512243  0.80124364  0.74645699    -0.78400
O3          O  0.26222240  0.71474575  0.66774015    -0.78400
O4          O  0.26108573  0.77836926  0.82370558    -0.78300
O5          O  0.30651476  0.74523541  0.69398747    -0.78400
O6          O  0.30506109  0.74588891  0.79871002    -0.78300
O7          O  0.25921501  0.82802683  0.77355250    -0.78300
O8          O  0.25862906  0.66515384  0.71794719    -0.78400
C9          C  0.29207837  0.66543551  0.72663316     1.11400
C10         C  0.29297732  0.82600755  0.76718505     1.11200
C11         C  0.29564528  0.72300968  0.67009451     1.11400
C12         C  0.29411003  0.76773443  0.82286698     1.11300
O13         O  0.23625105  0.71939964  0.82586654    -0.78300
O14         O  0.23847208  0.77493597  0.66452862    -0.78400
O15         O  0.18991628  0.69477477  0.74547028    -0.78300
O16         O  0.19100920  0.80105409  0.74358394    -0.78300
O17         O  0.23581783  0.82583262  0.71343632    -0.78400
O18         O  0.23386324  0.66843729  0.77719437    -0.78300
O19         O  0.19152232  0.74905401  0.79872771    -0.78300
O20         O  0.19255580  0.74724559  0.68979629    -0.78400
Co21       Co  0.26966038  0.70939904  0.78357758     1.51500
Co22       Co  0.27125026  0.78342702  0.70816157     1.51700
Co23       Co  0.22602355  0.70909060  0.70856676     1.51600
Co24       Co  0.22594280  0.78550163  0.78152179     1.51500
O25         O  0.24823069  0.74685448  0.74541359    -1.40300
C26         C  0.20313003  0.72933061  0.82449193     1.11300
C27         C  0.20488493  0.76746556  0.66509100     1.11400
C28         C  0.20040150  0.67128738  0.76864700     1.11300
C29         C  0.20229267  0.82462625  0.72151203     1.11300
O30         O  0.73934831  0.18946213  0.69739126    -0.78300
O31         O  0.73706637  0.18894194  0.80572894    -0.78400
O32         O  0.81809080  0.23274969  0.72316420    -0.78400
O33         O  0.65841850  0.23464436  0.77946001    -0.78300
O34         O  0.79226324  0.18808156  0.75284919    -0.78400
O35         O  0.68498098  0.18975579  0.74983612    -0.78300
O36         O  0.70726759  0.23458070  0.83066019    -0.78300
O37         O  0.76889112  0.23441380  0.67235305    -0.78400
C38         C  0.76085764  0.20101752  0.67355412     1.11400
C39         C  0.71515000  0.20090642  0.82937983     1.11200
C40         C  0.81711750  0.19938236  0.73224469     1.11400
C41         C  0.65960625  0.20150200  0.76969901     1.11300
O42         O  0.65893584  0.25909580  0.71993256    -0.78300
O43         O  0.81735592  0.25675736  0.78299209    -0.78400
O44         O  0.73866569  0.30349549  0.69809814    -0.78300
O45         O  0.73733858  0.30311277  0.80508458    -0.78300
O46         O  0.76687547  0.25798046  0.83182913    -0.78400
O47         O  0.70936632  0.25907087  0.67129308    -0.78300
O48         O  0.68434873  0.30359232  0.75039386    -0.78300
O49         O  0.79175773  0.30212190  0.75288249    -0.78400
Co50       Co  0.70159361  0.22444578  0.71315612     1.51500
Co51       Co  0.77489525  0.22316612  0.78979823     1.51700
Co52       Co  0.77585500  0.26801519  0.71505109     1.51600
Co53       Co  0.70036808  0.26870819  0.78801073     1.51500
O54         O  0.73820454  0.24601005  0.75151372    -1.40300
C55         C  0.66003213  0.29242997  0.72887190     1.11300
C56         C  0.81639298  0.29008224  0.77389852     1.11400
C57         C  0.71739074  0.29248540  0.67339129     1.11300
C58         C  0.75833169  0.29155443  0.82999693     1.11300
O59         O  0.69762838  0.75187871  0.18962737    -0.78300
O60         O  0.80451946  0.75280499  0.18791390    -0.78400
O61         O  0.72074255  0.83156848  0.23524859    -0.78400
O62         O  0.78347963  0.67221503  0.23294678    -0.78300
O63         O  0.74992058  0.80645403  0.18953561    -0.78400
O64         O  0.75225452  0.69808784  0.18855963    -0.78300
O65         O  0.83212645  0.72263547  0.23202255    -0.78300
O66         O  0.67199334  0.78110355  0.23507953    -0.78400
C67         C  0.67342625  0.77343491  0.20140670     1.11400
C68         C  0.82944289  0.73129705  0.19863625     1.11200
C69         C  0.72842973  0.83060269  0.20160294     1.11400
C70         C  0.77430862  0.67373166  0.19959631     1.11300
O71         O  0.72443594  0.67193148  0.25805387    -0.78300
O72         O  0.78096321  0.83145739  0.25849321    -0.78400
O73         O  0.69910806  0.75054288  0.30397516    -0.78300
O74         O  0.80761626  0.75174911  0.30196781    -0.78300
O75         O  0.83192666  0.78199449  0.25693471    -0.78400
O76         O  0.67319730  0.72118407  0.25885641    -0.78300
O77         O  0.75493519  0.69773592  0.30258244    -0.78300
O78         O  0.75263447  0.80511733  0.30372437    -0.78400
Co79       Co  0.71527176  0.71430760  0.22396765     1.51500
Co80       Co  0.78840933  0.78965238  0.22346750     1.51700
Co81       Co  0.71467043  0.78861980  0.26925823     1.51600
Co82       Co  0.79098560  0.71456476  0.26726203     1.51500
O83         O  0.75231343  0.75180341  0.24600684    -1.40300
C84         C  0.73390467  0.67321962  0.29132729     1.11300
C85         C  0.77371135  0.82941847  0.29215296     1.11400
C86         C  0.67514260  0.72877212  0.29255807     1.11300
C87         C  0.83154911  0.77302203  0.29031594     1.11300
C88         C  0.53029885  0.99647206  0.01626482     0.04100
C89         C  0.50455443  0.96903487  0.02220019     0.04100
C90         C  0.47343953  0.96667266  0.99969937     0.04100
C91         C  0.46863961  0.99118200  0.97046401     0.04100
C92         C  0.49275208  0.02063939  0.96638435     0.04100
C93         C  0.52387034  0.02342775  0.98933770     0.04100
C94         C  0.63340370  0.03430904  0.13822268     0.82000
N95         N  0.65216843  0.00284846  0.14428897    -0.76300
C96         C  0.64225729  0.97182054  0.12708228     0.84500
N97         N  0.61352547  0.97234686  0.10360244    -0.76200
C98         C  0.59468440  0.00392655  0.09763952     0.84600
N99         N  0.60442679  0.03472937  0.11526684    -0.77900
C100        C  0.62529535  0.14875167  0.03556327     0.82000
N101        N  0.59908919  0.12317263  0.03824473    -0.76300
C102        C  0.58886556  0.10361712  0.00846471     0.84500
N103        N  0.60523506  0.10976848  0.97597327    -0.76200
C104        C  0.63148292  0.13525870  0.97325643     0.84600
N105        N  0.64142564  0.15467372  0.00305367    -0.77900
C106        C  0.33988152  0.02630367  0.86940287     0.82000
N107        N  0.33679238  0.99447112  0.85107513    -0.76300
C108        C  0.35768549  0.96521907  0.86065213     0.84500
N109        N  0.38207485  0.96807329  0.88863361    -0.76200
C110        C  0.38508992  0.00019428  0.90707048     0.84600
N111        N  0.36384376  0.02902189  0.89732207    -0.77900
C112        C  0.45512313  0.12976165  0.85923908     0.82000
N113        N  0.46125024  0.10193009  0.88303634    -0.76300
C114        C  0.49433980  0.08472127  0.88398300     0.84500
N115        N  0.52090141  0.09557554  0.86130250    -0.76200
C116        C  0.51490014  0.12340855  0.83786316     0.84600
N117        N  0.48208703  0.14059449  0.83686776    -0.77900
C118        C  0.53258913  0.86270984  0.13406387     0.82000
N119        N  0.52894461  0.89036184  0.10970728    -0.76300
C120        C  0.49647380  0.90831334  0.10616272     0.84500
N121        N  0.46797038  0.89843811  0.12683994    -0.76200
C122        C  0.47154827  0.87073106  0.15083381     0.84600
N123        N  0.50378222  0.85277406  0.15442688    -0.77900
C124        C  0.36584263  0.85655183  0.02753747     0.82000
N125        N  0.39310773  0.88104074  0.02419064    -0.76300
C126        C  0.41112050  0.88391111  0.99199768     0.84500
N127        N  0.40160897  0.86251075  0.96357576    -0.76200
C128        C  0.37438426  0.83844243  0.96686380     0.84600
N129        N  0.35646837  0.83548606  0.99874766    -0.77900
C130        C  0.01942130  0.53320309  0.99791134     0.04100
C131        C  0.02258411  0.50653497  0.97048206     0.04100
C132        C  0.99883197  0.47628633  0.97043865     0.04100
C133        C  0.96970841  0.47525798  0.99580151     0.04100
C134        C  0.96350039  0.50525725  0.01925089     0.04100
C135        C  0.98896716  0.53343945  0.02088731     0.04100
C136        C  0.12499985  0.65741100  0.96822578     0.82000
N137        N  0.09720334  0.63412531  0.96364622    -0.76300
C138        C  0.08640144  0.61274892  0.99145709     0.84500
N139        N  0.10370962  0.61492877  0.02446206    -0.76200
C140        C  0.13159790  0.63864998  0.02914799     0.84600
N141        N  0.14220225  0.65964869  0.00087288    -0.77900
C142        C  0.13031128  0.53498434  0.85934454     0.82000
N143        N  0.10584554  0.53098267  0.88673841    -0.76300
C144        C  0.10308891  0.49820317  0.90404230     0.84500
N145        N  0.12464790  0.46994837  0.89373877    -0.76200
C146        C  0.14864773  0.47384589  0.86641124     0.84600
N147        N  0.15150122  0.50628181  0.84922579    -0.77900
C148        C  0.96899838  0.64337154  0.13012482     0.82000
N149        N  0.99840982  0.65116025  0.15107826    -0.76300
C150        C  0.02924882  0.63079878  0.14824088     0.84500
N151        N  0.03077684  0.60274299  0.12452365    -0.76200
C152        C  0.00164485  0.59500683  0.10331346     0.84600
N153        N  0.97060703  0.61536599  0.10608482    -0.77900
C154        C  0.86629635  0.46891926  0.14973586     0.82000
N155        N  0.89090143  0.46389614  0.12290548    -0.76300
C156        C  0.89843785  0.49134471  0.09955056     0.84500
N157        N  0.88131750  0.52428108  0.10349577    -0.76200
C158        C  0.85669588  0.52935855  0.13054992     0.84600
N159        N  0.84924081  0.50159783  0.15353318    -0.77900
C160        C  0.96012739  0.36678253  0.84974428     0.82000
N161        N  0.95651059  0.39403943  0.87424769    -0.76300
C162        C  0.98557968  0.40532732  0.89395165     0.84500
N163        N  0.01875196  0.38906718  0.88881036    -0.76200
C164        C  0.02240479  0.36165220  0.86406136     0.84600
N165        N  0.99300416  0.35059117  0.84467753    -0.77900
C166        C  0.85991590  0.36832027  0.02867979     0.82000
N167        N  0.83862127  0.35784096  0.00030590    -0.76300
C168        C  0.84194893  0.37383661  0.96725064     0.84500
N169        N  0.86641917  0.40062988  0.96256518    -0.76200
C170        C  0.88823063  0.41102728  0.99054766     0.84600
N171        N  0.88494029  0.39485066  0.02378005    -0.77900
C172        C  0.50789695  0.48057011  0.53938304     0.04100
C173        C  0.53238286  0.47658975  0.51029035     0.04100
C174        C  0.53343437  0.50297894  0.48222274     0.04100
C175        C  0.51163015  0.53503962  0.48496199     0.04100
C176        C  0.48695722  0.53873701  0.51434856     0.04100
C177        C  0.48441044  0.51115098  0.54100211     0.04100
C178        C  0.51860594  0.36435591  0.64355732     0.82000
N179        N  0.51827511  0.39025053  0.61727813    -0.76300
C180        C  0.48813389  0.39558409  0.59619138     0.84500
N181        N  0.45830148  0.37484068  0.60158519    -0.76200
C182        C  0.45854857  0.34916532  0.62818583     0.84600
N183        N  0.48874483  0.34391930  0.64902641    -0.77900
C184        C  0.35385339  0.62871332  0.46719025     0.82000
N185        N  0.34683092  0.64613460  0.49895478    -0.76300
C186        C  0.36842836  0.64003085  0.52852102     0.84500
N187        N  0.39725374  0.61670281  0.52614215    -0.76200
C188        C  0.40436110  0.59938591  0.49418181     0.84600
N189        N  0.38249378  0.60538584  0.46489821    -0.77900
C190        C  0.65403958  0.53442621  0.37191805     0.82000
N191        N  0.63013626  0.53965177  0.39926856    -0.76300
C192        C  0.60968368  0.51180501  0.41136264     0.84500
N193        N  0.61347085  0.47817690  0.39592360    -0.76200
C194        C  0.63770132  0.47282502  0.36852194     0.84600
N195        N  0.65785461  0.50105172  0.35658182    -0.77900
C196        C  0.47659255  0.62993445  0.35196577     0.82000
N197        N  0.50804770  0.64811515  0.34703003    -0.76300
C198        C  0.53799334  0.63993767  0.36751142     0.84500
N199        N  0.53627465  0.61338451  0.39344248    -0.76200
C200        C  0.50466657  0.59491404  0.39838196     0.84600
N201        N  0.47515378  0.60315709  0.37730445    -0.77900
C202        C  0.36828374  0.52122227  0.64715819     0.82000
N203        N  0.34887448  0.49059879  0.65287424    -0.76300
C204        C  0.35584689  0.46008736  0.63321768     0.84500
N205        N  0.38214414  0.46029276  0.60758575    -0.76200
C206        C  0.40187456  0.49072656  0.60175207     0.84600
N207        N  0.39485966  0.52128984  0.62161135    -0.77900
C208        C  0.63214920  0.35778320  0.52934974     0.82000
N209        N  0.60688900  0.38477535  0.52588302    -0.76300
C210        C  0.58883891  0.38978166  0.49376253     0.84500
N211        N  0.59625946  0.36765276  0.46517040    -0.76200
C212        C  0.62163666  0.34075859  0.46855185     0.84600
N213        N  0.63964748  0.33587736  0.50059429    -0.77900
C214        C  0.01387871  0.95830853  0.50780582     0.04100
C215        C  0.98787108  0.95930006  0.47946218     0.04100
C216        C  0.96519979  0.99016325  0.47472607     0.04100
C217        C  0.96994333  0.02128106  0.49705494     0.04100
C218        C  0.99560415  0.02012061  0.52619272     0.04100
C219        C  0.01679434  0.98801410  0.53191104     0.04100
C220        C  0.02176976  0.13311899  0.63618145     0.82000
N221        N  0.01968599  0.10529017  0.61162705    -0.76300
C222        C  0.98826068  0.08608193  0.60815888     0.84500
N223        N  0.95929369  0.09491706  0.62929652    -0.76200
C224        C  0.96110526  0.12287771  0.65329296     0.84600
N225        N  0.99236487  0.14180360  0.65674513    -0.77900
C226        C  0.14839989  0.02675407  0.62628206     0.82000
N227        N  0.12190758  0.03036544  0.60080858    -0.76300
C228        C  0.09963299  0.00228859  0.59342331     0.84500
N229        N  0.10413478  0.97019476  0.61158402    -0.76200
C230        C  0.13088064  0.96655955  0.63707923     0.84600
N231        N  0.15287338  0.99495627  0.64453713    -0.77900
C232        C  0.14386186  0.86352358  0.46143535     0.82000
N233        N  0.11714348  0.88924282  0.46036341    -0.76300
C234        C  0.09649034  0.89586633  0.49016867     0.84500
N235        N  0.10301520  0.87679920  0.52140699    -0.76200
C236        C  0.13004547  0.85119431  0.52255570     0.84600
N237        N  0.15032995  0.84460493  0.49254151    -0.77900
C238        C  0.86427789  0.13763197  0.47203698     0.82000
N239        N  0.88997840  0.11075288  0.47590019    -0.76300
C240        C  0.89506718  0.09425377  0.50892254     0.84500
N241        N  0.87437960  0.10460252  0.53750869    -0.76200
C242        C  0.84899823  0.13126597  0.53375460     0.84600
N243        N  0.84386762  0.14774743  0.50105965    -0.77900
C244        C  0.86906599  0.03168314  0.34341126     0.82000
N245        N  0.85125688  0.99989931  0.33883295    -0.76300
C246        C  0.85965805  0.97077454  0.36018675     0.84500
N247        N  0.88580171  0.97362050  0.38635629    -0.76200
C248        C  0.90368205  0.00556433  0.39094156     0.84600
N249        N  0.89531267  0.03437461  0.36927063    -0.77900
C250        C  0.03491746  0.86434891  0.35122160     0.82000
N251        N  0.00428599  0.84496589  0.34552338    -0.76300
C252        C  0.97412225  0.85195027  0.36549593     0.84500
N253        N  0.97463798  0.87835600  0.39135004    -0.76200
C254        C  0.00534222  0.89787359  0.39705636     0.84600
N255        N  0.03530892  0.89094008  0.37674378    -0.77900
O256        O  0.24050940  0.19444585  0.69192860    -0.78300
O257        O  0.24220315  0.29906369  0.68886363    -0.78400
O258        O  0.15918924  0.22101355  0.73613503    -0.78400
O259        O  0.32224078  0.27352340  0.73738479    -0.78300
O260        O  0.18550739  0.24745807  0.69001569    -0.78400
O261        O  0.29595819  0.24471548  0.69234526    -0.78300
O262        O  0.27312051  0.32465647  0.73347102    -0.78300
O263        O  0.20868216  0.17002115  0.73597237    -0.78400
C264        C  0.21896392  0.17059335  0.70300903     1.11400
C265        C  0.26471815  0.32247651  0.69991642     1.11200
C266        C  0.16079689  0.22717209  0.70223826     1.11400
C267        C  0.32092423  0.26494540  0.70397063     1.11300
O268        O  0.31920107  0.21464546  0.76294611    -0.78300
O269        O  0.16171739  0.28140972  0.75846245    -0.78400
O270        O  0.23859889  0.19504396  0.80561709    -0.78300
O271        O  0.24162641  0.30258130  0.80278057    -0.78300
O272        O  0.21337055  0.32864527  0.75649330    -0.78400
O273        O  0.26779497  0.16718105  0.76153824    -0.78300
O274        O  0.29358933  0.24665155  0.80644271    -0.78300
O275        O  0.18633647  0.25135731  0.80441513    -0.78400
Co276      Co  0.27752170  0.20882479  0.72725448     1.51500
Co277      Co  0.20408433  0.28551351  0.72375305     1.51700
Co278      Co  0.20184764  0.21262863  0.77031416     1.51600
Co279      Co  0.27903798  0.28361085  0.76985485     1.51500
O280        O  0.24057957  0.24768362  0.74780568    -1.40300
C281        C  0.31688610  0.22326274  0.79630359     1.11300
C282        C  0.16307208  0.27407193  0.79227901     1.11400
C283        C  0.25872452  0.16925601  0.79470168     1.11300
C284        C  0.22204486  0.32803095  0.79000906     1.11300
O285        O  0.76454000  0.17220753  0.26973119    -0.78300
O286        O  0.76078038  0.33617557  0.23085369    -0.78400
O287        O  0.80602347  0.26281937  0.19598441    -0.78400
O288        O  0.80543575  0.24649677  0.30601444    -0.78300
O289        O  0.75965659  0.29422562  0.17406820    -0.78400
O290        O  0.76037506  0.21403707  0.32637009    -0.78300
O291        O  0.80568607  0.30668574  0.25858306    -0.78300
O292        O  0.80853306  0.20246127  0.24345980    -0.78400
C293        C  0.79787934  0.17557331  0.26187119     1.11400
C294        C  0.79424372  0.33313191  0.23943320     1.11200
C295        C  0.79336482  0.28630520  0.17392897     1.11400
C296        C  0.79363594  0.22269007  0.32763847     1.11300
O297        O  0.69150295  0.24594680  0.30101042    -0.78300
O298        O  0.69185476  0.26043935  0.19642317    -0.78400
O299        O  0.74102119  0.17822840  0.20994428    -0.78300
O300        O  0.73653005  0.32958070  0.28984240    -0.78300
O301        O  0.69159179  0.30799366  0.25703564    -0.78400
O302        O  0.69486346  0.19933876  0.24135738    -0.78300
O303        O  0.73470004  0.27313901  0.33212779    -0.78300
O304        O  0.73738053  0.23447065  0.16731074    -0.78400
Co305      Co  0.72799617  0.21180473  0.28157149     1.51500
Co306      Co  0.72622315  0.29582003  0.21763933     1.51700
Co307      Co  0.77295255  0.22256374  0.20810470     1.51600
Co308      Co  0.77052171  0.28594852  0.29270795     1.51500
O309        O  0.74949564  0.25406212  0.24998030    -1.40300
C310        C  0.70157679  0.26440989  0.32814629     1.11300
C311        C  0.70354530  0.24112290  0.17033414     1.11400
C312        C  0.70768003  0.17722810  0.21839946     1.11300
C313        C  0.70307342  0.32967831  0.28117179     1.11300
O314        O  0.30764642  0.68828603  0.24453693    -0.78300
O315        O  0.19931251  0.69020369  0.24463739    -0.78400
O316        O  0.28379826  0.73314210  0.32373237    -0.78400
O317        O  0.22192556  0.73385774  0.16477248    -0.78300
O318        O  0.25353297  0.68888273  0.29772565    -0.78400
O319        O  0.25187890  0.68820325  0.19028354    -0.78300
O320        O  0.17299402  0.73552211  0.21508387    -0.78300
O321        O  0.33310366  0.73359066  0.27385071    -0.78400
C322        C  0.33231011  0.70009405  0.26555419     1.11400
C323        C  0.17420741  0.70221243  0.22421639     1.11200
C324        C  0.27487573  0.69991818  0.32227220     1.11400
C325        C  0.22928369  0.70004300  0.16667479     1.11300
O326        O  0.28160094  0.75671353  0.16389954    -0.78300
O327        O  0.22426428  0.75805196  0.32454152    -0.78400
O328        O  0.30550217  0.80229183  0.24429042    -0.78300
O329        O  0.19981727  0.80408995  0.24412379    -0.78300
O330        O  0.17422648  0.75979983  0.27458012    -0.78400
O331        O  0.33151422  0.75738666  0.21403205    -0.78300
O332        O  0.25292396  0.80265434  0.18955384    -0.78300
O333        O  0.25306302  0.80278519  0.29843691    -0.78400
Co334      Co  0.28972368  0.72281064  0.20671546     1.51500
Co335      Co  0.21622197  0.72436277  0.28185178     1.51700
Co336      Co  0.29036576  0.76776564  0.28162146     1.51600
Co337      Co  0.21544993  0.76879551  0.20683173     1.51500
O338        O  0.25297074  0.74587152  0.24421630    -1.40300
C339        C  0.27414028  0.79050892  0.16537467     1.11300
C340        C  0.23224674  0.79146381  0.32298948     1.11400
C341        C  0.32990410  0.79073007  0.22316817     1.11300
C342        C  0.17568486  0.79315173  0.26569181     1.11300
C343        C  0.06702617  0.85631265  0.33059511    -0.16700
C344        C  0.09372079  0.84749272  0.31375706     0.07400
C345        C  0.12420280  0.83365213  0.29490835     0.09200
C346        C  0.14892617  0.81775914  0.28024251    -0.17600
C347        C  0.85959486  0.06286746  0.32167657    -0.16700
C348        C  0.85081880  0.08982177  0.30494002     0.07400
C349        C  0.83790717  0.12151391  0.28713922     0.09200
C350        C  0.82268658  0.14764150  0.27396890    -0.17600
C351        C  0.81701536  0.20562834  0.35469678    -0.16700
C352        C  0.83276312  0.18979685  0.37925280     0.07400
C353        C  0.84760499  0.17067313  0.40974339     0.09200
C354        C  0.85724406  0.15484466  0.43720727    -0.17600
C355        C  0.21708264  0.81579526  0.34955021    -0.16700
C356        C  0.20178155  0.83197687  0.37363576     0.07400
C357        C  0.18216866  0.84645048  0.40329551     0.09200
C358        C  0.16481159  0.85563468  0.42951142    -0.17600
C359        C  0.16937129  0.05762002  0.63599316    -0.16700
C360        C  0.18375232  0.08484022  0.64636201     0.07400
C361        C  0.19743484  0.11661436  0.66208055     0.09200
C362        C  0.20756816  0.14247423  0.67903473    -0.17600
C363        C  0.13425896  0.21006069  0.67860921    -0.16700
C364        C  0.11043542  0.19288465  0.66361505     0.07400
C365        C  0.08124385  0.17134644  0.65011866     0.09200
C366        C  0.05511414  0.15317674  0.64169792    -0.17600
C367        C  0.98518072  0.92853305  0.45342182    -0.14600
C368        C  0.00643488  0.92746534  0.42397154    -0.29800
H369        H  0.96535845  0.90748969  0.45826427     0.14400
H370        H  0.02633077  0.94865510  0.42006519     0.15000
C371        C  0.93487586  0.98783707  0.44787081    -0.14600
C372        C  0.93251577  0.00950247  0.41866085    -0.29800
H373        H  0.91589320  0.96565423  0.45087894     0.14400
H374        H  0.95215771  0.03096388  0.41502452     0.15000
C375        C  0.94668579  0.05415339  0.49069208    -0.14600
C376        C  0.92123836  0.06396050  0.51467944    -0.29800
H377        H  0.94892890  0.06880748  0.46520780     0.14400
H378        H  0.91910382  0.04862743  0.53985018     0.15000
C379        C  0.00069520  0.05249418  0.55035910    -0.14600
C380        C  0.98513673  0.05439805  0.58329674    -0.29800
H381        H  0.01669154  0.07500385  0.54049008     0.14400
H382        H  0.96727906  0.03260044  0.59146655     0.15000
C383        C  0.04313580  0.98482453  0.56246439    -0.14600
C384        C  0.07114064  0.00738901  0.56563248    -0.29800
H385        H  0.04148894  0.96119965  0.58012711     0.14400
H386        H  0.07332715  0.03033109  0.54715210     0.15000
C387        C  0.04015037  0.92725306  0.51095789    -0.14600
C388        C  0.06836263  0.92474925  0.48814067    -0.29800
H389        H  0.03741042  0.90807757  0.53322440     0.14400
H390        H  0.07078529  0.94473047  0.46654843     0.15000
C391        C  0.63139721  0.31936981  0.43745134    -0.16700
C392        C  0.64213922  0.30347908  0.41090775     0.07400
C393        C  0.65841134  0.28727314  0.38023854     0.09200
C394        C  0.67604035  0.27553643  0.35530386    -0.17600
C395        C  0.33537880  0.42762398  0.63968710    -0.16700
C396        C  0.31795013  0.40109218  0.64727464     0.07400
C397        C  0.29756734  0.37132323  0.65993401     0.09200
C398        C  0.28116627  0.34763147  0.67523393    -0.17600
C399        C  0.44463095  0.63939892  0.33072501    -0.16700
C400        C  0.41771801  0.64859746  0.31370782     0.07400
C401        C  0.38639467  0.66180900  0.29480468     0.09200
C402        C  0.36055637  0.67653280  0.28010617    -0.17600
C403        C  0.64278312  0.43745196  0.35201550    -0.16700
C404        C  0.65065535  0.40968285  0.33599282     0.07400
C405        C  0.66388618  0.37933862  0.31586240     0.09200
C406        C  0.67911371  0.35539885  0.29895696    -0.17600
C407        C  0.33268359  0.63674421  0.43526218    -0.16700
C408        C  0.31708655  0.64561449  0.40768863     0.07400
C409        C  0.30078752  0.65966835  0.37576861     0.09200
C410        C  0.28818391  0.67568424  0.34994607    -0.17600
C411        C  0.42649170  0.32865320  0.63582341    -0.16700
C412        C  0.40060601  0.31181847  0.64619306     0.07400
C413        C  0.37156910  0.29321660  0.66254207     0.09200
C414        C  0.34785262  0.27898579  0.67976553    -0.17600
C415        C  0.46094708  0.56973870  0.51606728    -0.14600
C416        C  0.43486418  0.57343957  0.49069999    -0.29800
H417        H  0.46011889  0.58609183  0.54066572     0.14400
H418        H  0.43523732  0.55585993  0.46692796     0.15000
C419        C  0.45660251  0.51424675  0.57035471    -0.14600
C420        C  0.42975763  0.48995561  0.57303199    -0.29800
H421        H  0.45763155  0.53728274  0.58880171     0.14400
H422        H  0.42842232  0.46792377  0.55346305     0.15000
C423        C  0.51602765  0.56566187  0.45857004    -0.14600
C424        C  0.50210655  0.56443697  0.42469638    -0.29800
H425        H  0.52975297  0.58998696  0.46784537     0.14400
H426        H  0.48588542  0.54117303  0.41686550     0.15000
C427        C  0.55756624  0.49640662  0.45041288    -0.14600
C428        C  0.58448480  0.51889413  0.44173152    -0.29800
H429        H  0.55408953  0.47156639  0.43492536     0.14400
H430        H  0.58813737  0.54368370  0.45736738     0.15000
C431        C  0.56034188  0.44726004  0.51274354    -0.14600
C432        C  0.56171628  0.41930660  0.48942781    -0.29800
H433        H  0.57867503  0.44782262  0.53605401     0.14400
H434        H  0.54279902  0.41822091  0.46663524     0.15000
C435        C  0.50821766  0.45315102  0.56911215    -0.14600
C436        C  0.48780763  0.42319771  0.56712947    -0.29800
H437        H  0.52582638  0.45774201  0.59247709     0.14400
H438        H  0.46961901  0.41944320  0.54404647     0.15000
C439        C  0.85429348  0.35220328  0.06406261    -0.16700
C440        C  0.84562420  0.33745256  0.09212885     0.07400
C441        C  0.83160364  0.31924953  0.12304913     0.09200
C442        C  0.81631510  0.30367490  0.14751314    -0.17600
C443        C  0.05722938  0.34444082  0.85729639    -0.16700
C444        C  0.08434489  0.32819505  0.84766515     0.07400
C445        C  0.11391224  0.30830881  0.83245144     0.09200
C446        C  0.13736196  0.29177466  0.81616214    -0.17600
C447        C  0.81858632  0.36031995  0.22657929    -0.16700
C448        C  0.83442536  0.38480682  0.21211652     0.07400
C449        C  0.84838153  0.41421308  0.19216958     0.09200
C450        C  0.85754705  0.43934176  0.17344805    -0.17600
C451        C  0.06096924  0.64006001  0.16869318    -0.16700
C452        C  0.08836137  0.64929783  0.18388407     0.07400
C453        C  0.12012669  0.66322738  0.19973966     0.09200
C454        C  0.14601996  0.67885095  0.21181095    -0.17600
C455        C  0.21031659  0.35734191  0.81278008    -0.16700
C456        C  0.19915789  0.38380749  0.82855314     0.07400
C457        C  0.18425438  0.41580446  0.84359419     0.09200
C458        C  0.16938350  0.44295224  0.85451465    -0.17600
C459        C  0.21076171  0.67604879  0.14166170    -0.16700
C460        C  0.19206781  0.66135886  0.11879922     0.07400
C461        C  0.16911526  0.64900063  0.09009547     0.09200
C462        C  0.15056516  0.64203661  0.06362372    -0.17600
C463        C  0.04819643  0.51311919  0.94000792    -0.14600
C464        C  0.07753352  0.49210371  0.93422527    -0.29800
H465        H  0.04329205  0.53684380  0.92297370     0.14400
H466        H  0.08257654  0.46875490  0.95173767     0.15000
C467        C  0.04983003  0.55857533  0.00542033    -0.14600
C468        C  0.05610121  0.58757192  0.98454957    -0.29800
H469        H  0.06674979  0.55340098  0.02925585     0.14400
H470        H  0.03916746  0.59229509  0.96059869     0.15000
C471        C  0.98375391  0.56321846  0.04746073    -0.14600
C472        C  0.00481382  0.56510561  0.07715550    -0.29800
H473        H  0.96190063  0.58287652  0.04280180     0.14400
H474        H  0.02646926  0.54507777  0.08129247     0.15000
C475        C  0.93113355  0.50785713  0.04338316    -0.14600
C476        C  0.92639922  0.48509386  0.07141617    -0.29800
H477        H  0.91387872  0.53195258  0.04089987     0.14400
H478        H  0.94439308  0.46160556  0.07452047     0.15000
C479        C  0.94665995  0.44252320  0.99938866    -0.14600
C480        C  0.91313813  0.44163359  0.98489080    -0.29800
H481        H  0.95694019  0.41976145  0.01546328     0.14400
H482        H  0.90401312  0.46378439  0.96733122     0.15000
C483        C  0.00532628  0.44572130  0.94444609    -0.14600
C484        C  0.97998390  0.43529165  0.92032174    -0.29800
H485        H  0.03181450  0.43245731  0.94442903     0.14400
H486        H  0.95379422  0.44926215  0.91990465     0.15000
C487        C  0.29077435  0.81437300  0.13941011    -0.16700
C488        C  0.30756271  0.83014718  0.11620771     0.07400
C489        C  0.32876622  0.84412163  0.08747156     0.09200
C490        C  0.34661967  0.85219686  0.06125785    -0.17600
C491        C  0.44041029  0.85875996  0.17015788    -0.16700
C492        C  0.41342095  0.84740317  0.18408733     0.07400
C493        C  0.38225571  0.83149903  0.19864593     0.09200
C494        C  0.35709986  0.81472568  0.21027275    -0.17600
C495        C  0.34112205  0.20558328  0.82186187    -0.16700
C496        C  0.36386085  0.18777529  0.83803392     0.07400
C497        C  0.39316311  0.16590821  0.85100021     0.09200
C498        C  0.42039102  0.14820156  0.85728407    -0.17600
C499        C  0.27149919  0.14147143  0.81911201    -0.16700
C500        C  0.28481718  0.11581958  0.83489238     0.07400
C501        C  0.30242375  0.08449472  0.84889622     0.09200
C502        C  0.31875714  0.05757846  0.85866114    -0.17600
C503        C  0.63637020  0.16951984  0.06703584    -0.16700
C504        C  0.64743873  0.18757249  0.09225536     0.07400
C505        C  0.66287849  0.20865066  0.12069367     0.09200
C506        C  0.67912017  0.22522813  0.14403223    -0.17600
C507        C  0.64429486  0.06713687  0.15601691    -0.16700
C508        C  0.65487134  0.09427494  0.17082091     0.07400
C509        C  0.66973147  0.12499286  0.18805928     0.09200
C510        C  0.68524655  0.14987376  0.20240565    -0.17600
C511        C  0.41138416  0.00521435  0.93717328    -0.14600
C512        C  0.44055567  0.98363564  0.94211408    -0.29800
H513        H  0.40779818  0.02884088  0.95459366     0.14400
H514        H  0.44452869  0.95999404  0.92483397     0.15000
C515        C  0.44513017  0.93933959  0.00769695    -0.14600
C516        C  0.44046480  0.91021908  0.98646427    -0.29800
H517        H  0.42788081  0.94366437  0.03114104     0.14400
H518        H  0.45769838  0.90658229  0.96285511     0.15000
C519        C  0.55008158  0.05386305  0.98444680    -0.14600
C520        C  0.56074332  0.07533555  0.01220685    -0.29800
H521        H  0.56079186  0.05852754  0.95748815     0.14400
H522        H  0.54886263  0.07164106  0.03885324     0.15000
C523        C  0.48338059  0.04988866  0.93998092    -0.14600
C524        C  0.50267083  0.05505674  0.90981599    -0.29800
H525        H  0.45964916  0.06687042  0.94536620     0.14400
H526        H  0.52646279  0.03797165  0.90479491     0.15000
C527        C  0.51216239  0.94081985  0.05017496    -0.14600
C528        C  0.49078512  0.93727796  0.07915462    -0.29800
H529        H  0.53634936  0.92383219  0.04726582     0.14400
H530        H  0.46710296  0.95498667  0.08204975     0.15000
C531        C  0.56229164  0.00456573  0.07428390    -0.14600
C532        C  0.56395759  0.99662756  0.03878371    -0.29800
H533        H  0.53665746  0.01333598  0.08608333     0.14400
H534        H  0.58987688  0.99058667  0.02605477     0.15000
C535        C  0.84132959  0.93686435  0.35416269    -0.16700
C536        C  0.82513278  0.90966271  0.34583666     0.07400
C537        C  0.80576150  0.87949184  0.33209631     0.09200
C538        C  0.78992867  0.85544692  0.31642139    -0.17600
C539        C  0.66118946  0.93828880  0.13543607    -0.16700
C540        C  0.67760524  0.91145764  0.14567583     0.07400
C541        C  0.69684143  0.88160312  0.16123453     0.09200
C542        C  0.71233332  0.85748827  0.17774176    -0.17600
C543        C  0.93594258  0.66402594  0.13470009    -0.16700
C544        C  0.90915378  0.68143667  0.14265037     0.07400
C545        C  0.87928236  0.70108368  0.15697912     0.09200
C546        C  0.85539303  0.71629031  0.17360998    -0.17600
C547        C  0.85908242  0.78696867  0.31430777    -0.16700
C548        C  0.88380453  0.80035800  0.33116635     0.07400
C549        C  0.91422142  0.81745138  0.34711906     0.09200
C550        C  0.94116021  0.83288499  0.35741993    -0.17600
C551        C  0.72077174  0.64586103  0.31551908    -0.16700
C552        C  0.70757765  0.62091936  0.33181712     0.07400
C553        C  0.69042594  0.59055978  0.34726750     0.09200
C554        C  0.67456384  0.56455475  0.35878004    -0.17600
C555        C  0.83892182  0.56413858  0.13594921    -0.16700
C556        C  0.82298699  0.59178767  0.14453456     0.07400
C557        C  0.80421793  0.62244347  0.15890931     0.09200
C558        C  0.78928519  0.64699830  0.17507752    -0.17600
C559        C  0.64720936  0.78994028  0.17715456    -0.16700
C560        C  0.62351861  0.80626498  0.16088672     0.07400
C561        C  0.59380670  0.82664782  0.14673618     0.09200
C562        C  0.56671797  0.84379844  0.13878062    -0.17600
C563        C  0.57161861  0.65870832  0.36007438    -0.16700
C564        C  0.59777870  0.67559487  0.34972948     0.07400
C565        C  0.62654733  0.69571614  0.33383144     0.09200
C566        C  0.64960298  0.71199891  0.31711187    -0.17600
C567        C  0.92889372  0.35461543  0.82989575    -0.16700
C568        C  0.90203821  0.34374192  0.81471624     0.07400
C569        C  0.87060102  0.32896437  0.79873774     0.09200
C570        C  0.84469454  0.31329424  0.78659363    -0.17600
C571        C  0.84554886  0.17526151  0.71953545    -0.16700
C572        C  0.87138593  0.15913985  0.70683460     0.07400
C573        C  0.90267314  0.14397587  0.68993474     0.09200
C574        C  0.92946801  0.13338026  0.67400223    -0.17600
C575        C  0.64891376  0.14191769  0.93895931    -0.16700
C576        C  0.66457150  0.14979035  0.91131505     0.07400
C577        C  0.68349187  0.16244192  0.88045301     0.09200
C578        C  0.69907564  0.17723856  0.85581571    -0.17600
C579        C  0.82032803  0.36171160  0.93694959    -0.16700
C580        C  0.80361517  0.34979632  0.91130479     0.07400
C581        C  0.78581986  0.33307378  0.88159581     0.09200
C582        C  0.77226958  0.31587784  0.85716734    -0.17600
C583        C  0.63040593  0.17835433  0.77965712    -0.16700
C584        C  0.60356761  0.16272461  0.78907225     0.07400
C585        C  0.57126605  0.14776841  0.80233073     0.09200
C586        C  0.54441266  0.13641678  0.81662514    -0.17600
C587        C  0.63286081  0.31687815  0.71447848    -0.16700
C588        C  0.60813669  0.33340835  0.70016603     0.07400
C589        C  0.57772021  0.34820962  0.68152813     0.09200
C590        C  0.55096167  0.35730990  0.66455805    -0.17600
C591        C  0.70192293  0.31706137  0.64694140    -0.16700
C592        C  0.68650003  0.33250363  0.62218613     0.07400
C593        C  0.66733727  0.34513394  0.59109169     0.09200
C594        C  0.65104080  0.35229696  0.56333038    -0.17600
C595        C  0.82753636  0.14160309  0.56450153    -0.20900
C596        C  0.81047051  0.15022802  0.59101179     0.07400
C597        C  0.79134376  0.16258764  0.62176613     0.09200
C598        C  0.77615170  0.17723308  0.64677260    -0.17600
C599        C  0.31827031  0.77937395  0.85100217    -0.16700
C600        C  0.33513690  0.79008203  0.87689537     0.07400
C601        C  0.35128354  0.80420346  0.90855839     0.09200
C602        C  0.36273781  0.81838597  0.93569282    -0.17600
C603        C  0.17964587  0.71880535  0.85333267    -0.16700
C604        C  0.16372324  0.70801810  0.87957405     0.07400
C605        C  0.14857395  0.69301408  0.91114867     0.09200
C606        C  0.13738391  0.67802386  0.93782395    -0.17600
C607        C  0.17771178  0.85098924  0.70568094    -0.16700
C608        C  0.16085734  0.87512050  0.69067857     0.07400
C609        C  0.14572556  0.90537638  0.67197797     0.09200
C610        C  0.13678394  0.93265050  0.65579141    -0.17600
C611        C  0.31661214  0.85202986  0.78457667    -0.16700
C612        C  0.33171710  0.87559973  0.80186776     0.07400
C613        C  0.34504911  0.90486351  0.82330561     0.09200
C614        C  0.35297542  0.93136485  0.84119026    -0.17600
C615        C  0.36050141  0.65828043  0.56220759    -0.16700
C616        C  0.35128795  0.67402813  0.58950806     0.07400
C617        C  0.33679114  0.69244030  0.62001615     0.09200
C618        C  0.32045446  0.70736485  0.64426311    -0.17600
C619        C  0.18136758  0.78241864  0.63721289    -0.16700
C620        C  0.16491963  0.79703901  0.61252789     0.07400
C621        C  0.14910452  0.81562136  0.58243886     0.09200
C622        C  0.13856209  0.83194688  0.55574414    -0.17600
C623        C  0.35898678  0.55400344  0.66677278    -0.16700
C624        C  0.34814410  0.58085419  0.68257934     0.07400
C625        C  0.33220147  0.61158394  0.69990521     0.09200
C626        C  0.31570902  0.63691627  0.71320613    -0.17600
C627        C  0.13497058  0.56944020  0.84109410    -0.16700
C628        C  0.14360860  0.59602061  0.82384439     0.07400
C629        C  0.15842327  0.62469845  0.80291311     0.09200
C630        C  0.17509565  0.64715166  0.78590089    -0.17600
loop_ 
_geom_bond_atom_site_label_1 
_geom_bond_atom_site_label_2 
_geom_bond_distance 
_geom_bond_site_symmetry_2 
_ccdc_geom_bond_type 
O1            C9   1.263       .  A
O1          Co21   1.976       .  S
O2           C10   1.266       .  A
O2          Co22   1.989       .  S
O3           C11   1.273       .  A
O3          Co23   2.027       .  S
O4           C12   1.272       .  A
O4          Co24   2.025       .  S
O5           C11   1.266       .  A
O5          Co22   1.972       .  S
O6           C12   1.262       .  A
O6          Co21   1.960       .  S
O7           C10   1.267       .  A
O7          Co24   2.021       .  S
O8            C9   1.269       .  A
O8          Co23   2.027       .  S
C9          C626   1.443       .  S
C10         C611   1.447       .  S
C11         C618   1.437       .  S
C12         C599   1.428       .  S
O13          C26   1.268       .  A
O13         Co21   2.020       .  S
O14          C27   1.270       .  A
O14         Co22   2.025       .  S
O15          C28   1.267       .  A
O15         Co23   1.982       .  S
O16          C29   1.263       .  A
O16         Co24   1.968       .  S
O17          C29   1.272       .  A
O17         Co22   2.029       .  S
O18          C28   1.271       .  A
O18         Co21   2.026       .  S
O19          C26   1.261       .  A
O19         Co24   1.964       .  S
O20          C27   1.264       .  A
O20         Co23   1.974       .  S
Co21         O25   2.106       .  S
Co22         O25   2.109       .  S
Co23         O25   2.108       .  S
Co24         O25   2.107       .  S
C26         C603   1.430       .  S
C27         C619   1.440       .  S
C28         C630   1.445       .  S
C29         C607   1.436       .  S
O30          C38   1.263       .  A
O30         Co50   1.971       .  S
O31          C39   1.266       .  A
O31         Co51   1.981       .  S
O32          C40   1.272       .  A
O32         Co52   2.030       .  S
O33          C41   1.270       .  A
O33         Co53   2.023       .  S
O34          C40   1.266       .  A
O34         Co51   1.977       .  S
O35          C41   1.262       .  A
O35         Co50   1.962       .  S
O36          C39   1.269       .  A
O36         Co53   2.020       .  S
O37          C38   1.267       .  A
O37         Co52   2.014       .  S
C38         C598   1.431       .  S
C39         C578   1.440       .  S
C40         C571   1.443       .  S
C41         C583   1.429       .  S
O42          C55   1.270       .  A
O42         Co50   2.025       .  S
O43          C56   1.270       .  A
O43         Co51   2.021       .  S
O44          C57   1.264       .  A
O44         Co52   1.975       .  S
O45          C58   1.263       .  A
O45         Co53   1.969       .  S
O46          C58   1.271       .  A
O46         Co51   2.027       .  S
O47          C57   1.269       .  A
O47         Co50   2.021       .  S
O48          C55   1.262       .  A
O48         Co53   1.967       .  S
O49          C56   1.262       .  A
O49         Co52   1.963       .  S
Co50         O54   2.104       .  S
Co51         O54   2.108       .  S
Co52         O54   2.104       .  S
Co53         O54   2.106       .  S
C55         C587   1.433       .  S
C56         C570   1.430       .  S
C57         C591   1.436       .  S
C58         C582   1.437       .  S
O59          C67   1.263       .  A
O59         Co79   1.971       .  S
O60          C68   1.263       .  A
O60         Co80   1.971       .  S
O61          C69   1.271       .  A
O61         Co81   2.029       .  S
O62          C70   1.270       .  A
O62         Co82   2.024       .  S
O63          C69   1.264       .  A
O63         Co80   1.972       .  S
O64          C70   1.265       .  A
O64         Co79   1.977       .  S
O65          C68   1.270       .  A
O65         Co82   2.025       .  S
O66          C67   1.271       .  A
O66         Co81   2.025       .  S
C67         C559   1.436       .  S
C68         C546   1.436       .  S
C69         C542   1.439       .  S
C70         C558   1.441       .  S
O71          C84   1.270       .  A
O71         Co79   2.022       .  S
O72          C85   1.270       .  A
O72         Co80   2.022       .  S
O73          C86   1.268       .  A
O73         Co81   1.987       .  S
O74          C87   1.263       .  A
O74         Co82   1.970       .  S
O75          C87   1.271       .  A
O75         Co80   2.028       .  S
O76          C86   1.271       .  A
O76         Co79   2.031       .  S
O77          C84   1.263       .  A
O77         Co82   1.969       .  S
O78          C85   1.266       .  A
O78         Co81   1.979       .  S
Co79         O83   2.109       .  S
Co80         O83   2.110       .  S
Co81         O83   2.110       .  S
Co82         O83   2.107       .  S
C84         C551   1.433       .  S
C85         C538   1.440       .  S
C86         C566   1.451       .  S
C87         C547   1.437       .  S
C88          C89   1.411       .  A
C88          C93   1.416   1_564  A
C88         C532   1.484       .  S
C89          C90   1.410   1_554  A
C89         C527   1.483       .  S
C90          C91   1.410       .  A
C90         C515   1.488   1_556  S
C91          C92   1.418   1_565  A
C91         C512   1.490       .  S
C92          C93   1.421       .  A
C92         C523   1.483       .  S
C93         C519   1.499       .  S
C94         C507   1.433       .  S
C94          N95   1.356       .  A
C94          N99   1.354       .  A
N95          C96   1.357   1_545  A
C96         C539   1.439       .  S
C96          N97   1.359       .  A
N97          C98   1.361   1_565  A
C98         C531   1.463       .  S
C98          N99   1.356       .  A
C100        C503   1.445       .  S
C100        N101   1.360       .  A
C100        N105   1.357       .  A
N101        C102   1.363       .  A
C102        C520   1.484       .  S
C102        N103   1.362   1_554  A
N103        C104   1.359       .  A
C104        C575   1.441       .  S
C104        N105   1.358   1_556  A
C106        C502   1.433       .  S
C106        N107   1.356   1_545  A
C106        N111   1.352       .  A
N107        C108   1.358       .  A
C108        C614   1.447       .  S
C108        N109   1.364       .  A
N109        C110   1.367   1_565  A
C110        C511   1.477       .  S
C110        N111   1.355       .  A
C112        C498   1.440       .  S
C112        N113   1.361       .  A
C112        N117   1.357       .  A
N113        C114   1.365       .  A
C114        C524   1.473       .  S
C114        N115   1.354       .  A
N115        C116   1.352       .  A
C116        C586   1.430       .  S
C116        N117   1.355       .  A
C118        C562   1.436       .  S
C118        N119   1.359       .  A
C118        N123   1.356       .  A
N119        C120   1.362       .  A
C120        C528   1.467       .  S
C120        N121   1.354       .  A
N121        C122   1.351       .  A
C122        C491   1.427       .  S
C122        N123   1.355       .  A
C124        C490   1.442       .  S
C124        N125   1.363       .  A
C124        N129   1.356   1_554  A
N125        C126   1.366   1_554  A
C126        C516   1.474       .  S
C126        N127   1.354       .  A
N127        C128   1.351       .  A
C128        C602   1.429       .  S
C128        N129   1.354       .  A
C130        C131   1.411       .  A
C130        C135   1.409   1_456  A
C130        C467   1.490   1_556  S
C131        C132   1.423   1_455  A
C131        C463   1.491       .  S
C132        C133   1.427       .  A
C132        C483   1.493   1_655  S
C133        C134   1.417   1_556  A
C133        C479   1.488       .  S
C134        C135   1.407       .  A
C134        C475   1.493       .  S
C135        C471   1.479       .  S
C136        C606   1.431       .  S
C136        N137   1.352       .  A
C136        N141   1.355   1_556  A
N137        C138   1.354       .  A
C138        C468   1.479       .  S
C138        N139   1.368   1_556  A
N139        C140   1.365       .  A
C140        C462   1.448       .  S
C140        N141   1.357       .  A
C142        C627   1.446       .  S
C142        N143   1.365       .  A
C142        N147   1.357       .  A
N143        C144   1.368       .  A
C144        C464   1.479       .  S
C144        N145   1.354       .  A
N145        C146   1.352       .  A
C146        C458   1.430       .  S
C146        N147   1.355       .  A
C148        C543   1.436       .  S
C148        N149   1.357       .  A
C148        N153   1.358       .  A
N149        C150   1.356   1_655  A
C150        C451   1.428       .  S
C150        N151   1.352       .  A
N151        C152   1.354       .  A
C152        C472   1.465       .  S
C152        N153   1.361   1_455  A
C154        C450   1.435       .  S
C154        N155   1.355       .  A
C154        N159   1.356       .  A
N155        C156   1.357       .  A
C156        C476   1.480       .  S
C156        N157   1.366       .  A
N157        C158   1.362       .  A
C158        C555   1.443       .  S
C158        N159   1.357       .  A
C160        C567   1.433       .  S
C160        N161   1.353       .  A
C160        N165   1.355       .  A
N161        C162   1.356       .  A
C162        C484   1.481       .  S
C162        N163   1.366   1_655  A
N163        C164   1.364       .  A
C164        C443   1.445       .  S
C164        N165   1.357   1_455  A
C166        C439   1.446       .  S
C166        N167   1.358       .  A
C166        N171   1.363       .  A
N167        C168   1.357   1_554  A
C168        C579   1.438       .  S
C168        N169   1.355       .  A
N169        C170   1.357       .  A
C170        C480   1.476       .  S
C170        N171   1.365   1_556  A
C172        C173   1.410       .  A
C172        C177   1.410       .  A
C172        C435   1.486       .  S
C173        C174   1.417       .  A
C173        C431   1.482       .  S
C174        C175   1.421       .  A
C174        C427   1.492       .  S
C175        C176   1.422       .  A
C175        C423   1.497       .  S
C176        C177   1.414       .  A
C176        C415   1.480       .  S
C177        C419   1.496       .  S
C178        C590   1.434       .  S
C178        N179   1.356       .  A
C178        N183   1.356       .  A
N179        C180   1.360       .  A
C180        C436   1.473       .  S
C180        N181   1.361       .  A
N181        C182   1.359       .  A
C182        C411   1.438       .  S
C182        N183   1.356       .  A
C184        C407   1.432       .  S
C184        N185   1.357       .  A
C184        N189   1.353       .  A
N185        C186   1.358       .  A
C186        C615   1.439       .  S
C186        N187   1.358       .  A
N187        C188   1.362       .  A
C188        C416   1.469       .  S
C188        N189   1.355       .  A
C190        C554   1.435       .  S
C190        N191   1.353       .  A
C190        N195   1.356       .  A
N191        C192   1.356       .  A
C192        C428   1.478       .  S
C192        N193   1.366       .  A
N193        C194   1.363       .  A
C194        C403   1.446       .  S
C194        N195   1.358       .  A
C196        C399   1.445       .  S
C196        N197   1.358       .  A
C196        N201   1.357       .  A
N197        C198   1.360       .  A
C198        C563   1.452       .  S
C198        N199   1.366       .  A
N199        C200   1.368       .  A
C200        C424   1.484       .  S
C200        N201   1.360       .  A
C202        C623   1.443       .  S
C202        N203   1.358       .  A
C202        N207   1.361       .  A
N203        C204   1.357       .  A
C204        C395   1.440       .  S
C204        N205   1.356       .  A
N205        C206   1.360       .  A
C206        C420   1.478       .  S
C206        N207   1.363       .  A
C208        C594   1.437       .  S
C208        N209   1.356       .  A
C208        N213   1.357       .  A
N209        C210   1.361       .  A
C210        C432   1.472       .  S
C210        N211   1.356       .  A
N211        C212   1.356       .  A
C212        C391   1.433       .  S
C212        N213   1.357       .  A
C214        C215   1.409   1_455  A
C214        C219   1.411       .  A
C214        C387   1.490       .  S
C215        C216   1.409       .  A
C215        C367   1.486       .  S
C216        C217   1.420   1_565  A
C216        C371   1.487       .  S
C217        C218   1.422       .  A
C217        C375   1.489       .  S
C218        C219   1.420   1_645  A
C218        C379   1.498   1_655  S
C219        C383   1.481       .  S
C220        C366   1.453       .  S
C220        N221   1.367       .  A
C220        N225   1.359   1_455  A
N221        C222   1.368   1_455  A
C222        C380   1.486       .  S
C222        N223   1.360       .  A
N223        C224   1.357       .  A
C224        C574   1.444       .  S
C224        N225   1.357       .  A
C226        C359   1.425       .  S
C226        N227   1.351       .  A
C226        N231   1.355   1_545  A
N227        C228   1.353       .  A
C228        C384   1.468       .  S
C228        N229   1.363   1_545  A
N229        C230   1.359       .  A
C230        C610   1.437       .  S
C230        N231   1.356       .  A
C232        C358   1.437       .  S
C232        N233   1.355       .  A
C232        N237   1.356       .  A
N233        C234   1.359       .  A
C234        C388   1.474       .  S
C234        N235   1.363       .  A
N235        C236   1.361       .  A
C236        C622   1.440       .  S
C236        N237   1.357       .  A
C238        C354   1.448       .  S
C238        N239   1.365       .  A
C238        N243   1.359       .  A
N239        C240   1.367       .  A
C240        C376   1.476       .  S
C240        N241   1.354       .  A
N241        C242   1.351       .  A
C242        C595   1.432       .  S
C242        N243   1.356       .  A
C244        C347   1.434       .  S
C244        N245   1.357   1_545  A
C244        N249   1.354       .  A
N245        C246   1.358       .  A
C246        C535   1.441       .  S
C246        N247   1.360       .  A
N247        C248   1.363   1_565  A
C248        C372   1.473       .  S
C248        N249   1.356       .  A
C250        C343   1.436       .  S
C250        N251   1.356       .  A
C250        N255   1.355       .  A
N251        C252   1.357   1_455  A
C252        C550   1.438       .  S
C252        N253   1.359       .  A
N253        C254   1.361   1_655  A
C254        C368   1.471       .  S
C254        N255   1.358       .  A
O256        C264   1.260       .  A
O256       Co276   1.952       .  S
O257        C265   1.267       .  A
O257       Co277   1.977       .  S
O258        C266   1.268       .  A
O258       Co278   2.023       .  S
O259        C267   1.269       .  A
O259       Co279   2.026       .  S
O260        C266   1.268       .  A
O260       Co277   1.994       .  S
O261        C267   1.262       .  A
O261       Co276   1.971       .  S
O262        C265   1.272       .  A
O262       Co279   2.024       .  S
O263        C264   1.272       .  A
O263       Co278   2.026       .  S
C264        C362   1.424       .  S
C265        C398   1.438       .  S
C266        C363   1.451       .  S
C267        C414   1.438       .  S
O268        C281   1.270       .  A
O268       Co276   2.023       .  S
O269        C282   1.272       .  A
O269       Co277   2.029       .  S
O270        C283   1.263       .  A
O270       Co278   1.969       .  S
O271        C284   1.261       .  A
O271       Co279   1.962       .  S
O272        C284   1.270       .  A
O272       Co277   2.022       .  S
O273        C283   1.268       .  A
O273       Co276   2.020       .  S
O274        C281   1.264       .  A
O274       Co279   1.977       .  S
O275        C282   1.266       .  A
O275       Co278   1.979       .  S
Co276       O280   2.103       .  S
Co277       O280   2.109       .  S
Co278       O280   2.108       .  S
Co279       O280   2.106       .  S
C281        C495   1.439       .  S
C282        C446   1.444       .  S
C283        C499   1.431       .  S
C284        C455   1.429       .  S
O285        C293   1.270       .  A
O285       Co305   2.018       .  S
O286        C294   1.272       .  A
O286       Co306   2.023       .  S
O287        C295   1.266       .  A
O287       Co307   1.981       .  S
O288        C296   1.265       .  A
O288       Co308   1.983       .  S
O289        C295   1.270       .  A
O289       Co306   2.028       .  S
O290        C296   1.269       .  A
O290       Co305   2.027       .  S
O291        C294   1.265       .  A
O291       Co308   1.970       .  S
O292        C293   1.266       .  A
O292       Co307   1.973       .  S
C293        C350   1.433       .  S
C294        C447   1.433       .  S
C295        C442   1.446       .  S
C296        C351   1.447       .  S
O297        C310   1.262       .  A
O297       Co305   1.965       .  S
O298        C311   1.268       .  A
O298       Co306   1.982       .  S
O299        C312   1.269       .  A
O299       Co307   2.023       .  S
O300        C313   1.269       .  A
O300       Co308   2.023       .  S
O301        C313   1.267       .  A
O301       Co306   1.984       .  S
O302        C312   1.262       .  A
O302       Co305   1.966       .  S
O303        C310   1.272       .  A
O303       Co308   2.026       .  S
O304        C311   1.271       .  A
O304       Co307   2.026       .  S
Co305       O309   2.106       .  S
Co306       O309   2.109       .  S
Co307       O309   2.110       .  S
Co308       O309   2.108       .  S
C310        C394   1.432       .  S
C311        C506   1.444       .  S
C312        C510   1.433       .  S
C313        C406   1.444       .  S
O314        C322   1.268       .  A
O314       Co334   1.985       .  S
O315        C323   1.260       .  A
O315       Co335   1.960       .  S
O316        C324   1.270       .  A
O316       Co336   2.022       .  S
O317        C325   1.270       .  A
O317       Co337   2.024       .  S
O318        C324   1.262       .  A
O318       Co335   1.966       .  S
O319        C325   1.270       .  A
O319       Co334   1.989       .  S
O320        C323   1.270       .  A
O320       Co337   2.022       .  S
O321        C322   1.269       .  A
O321       Co336   2.022       .  S
C322        C402   1.443       .  S
C323        C454   1.427       .  S
C324        C410   1.431       .  S
C325        C459   1.447       .  S
O326        C339   1.270       .  A
O326       Co334   2.025       .  S
O327        C340   1.268       .  A
O327       Co335   2.022       .  S
O328        C341   1.261       .  A
O328       Co336   1.958       .  S
O329        C342   1.265       .  A
O329       Co337   1.972       .  S
O330        C342   1.271       .  A
O330       Co335   2.024       .  S
O331        C341   1.272       .  A
O331       Co334   2.024       .  S
O332        C339   1.265       .  A
O332       Co337   1.978       .  S
O333        C340   1.262       .  A
O333       Co336   1.972       .  S
Co334       O338   2.109       .  S
Co335       O338   2.104       .  S
Co336       O338   2.105       .  S
Co337       O338   2.107       .  S
C339        C487   1.442       .  S
C340        C355   1.435       .  S
C341        C494   1.427       .  S
C342        C346   1.435       .  S
C343        C344   1.206       .  T
C344        C345   1.412       .  S
C345        C346   1.206       .  T
C347        C348   1.205       .  T
C348        C349   1.411       .  S
C349        C350   1.205       .  T
C351        C352   1.213       .  T
C352        C353   1.424       .  S
C353        C354   1.213       .  T
C355        C356   1.206       .  T
C356        C357   1.413       .  S
C357        C358   1.206       .  T
C359        C360   1.199       .  T
C360        C361   1.401       .  S
C361        C362   1.199       .  T
C363        C364   1.216       .  T
C364        C365   1.429       .  S
C365        C366   1.216       .  T
C367        C368   1.341   1_655  D
C367        H369   1.086       .  S
C368        H370   1.086       .  S
C371        C372   1.338   1_565  D
C371        H373   1.087       .  S
C372        H374   1.086       .  S
C375        C376   1.337       .  D
C375        H377   1.085       .  S
C376        H378   1.087       .  S
C379        C380   1.345   1_455  D
C379        H381   1.086       .  S
C380        H382   1.087       .  S
C383        C384   1.336   1_565  D
C383        H385   1.087       .  S
C384        H386   1.087       .  S
C387        C388   1.342       .  D
C387        H389   1.086       .  S
C388        H390   1.086       .  S
C391        C392   1.204       .  T
C392        C393   1.409       .  S
C393        C394   1.204       .  T
C395        C396   1.208       .  T
C396        C397   1.416       .  S
C397        C398   1.208       .  T
C399        C400   1.211       .  T
C400        C401   1.421       .  S
C401        C402   1.211       .  T
C403        C404   1.212       .  T
C404        C405   1.421       .  S
C405        C406   1.211       .  T
C407        C408   1.203       .  T
C408        C409   1.408       .  S
C409        C410   1.203       .  T
C411        C412   1.207       .  T
C412        C413   1.414       .  S
C413        C414   1.207       .  T
C415        C416   1.338       .  D
C415        H417   1.086       .  S
C416        H418   1.087       .  S
C419        C420   1.345       .  D
C419        H421   1.086       .  S
C420        H422   1.085       .  S
C423        C424   1.343       .  D
C423        H425   1.086       .  S
C424        H426   1.087       .  S
C427        C428   1.339       .  D
C427        H429   1.085       .  S
C428        H430   1.087       .  S
C431        C432   1.339       .  D
C431        H433   1.086       .  S
C432        H434   1.086       .  S
C435        C436   1.343       .  D
C435        H437   1.086       .  S
C436        H438   1.086       .  S
C439        C440   1.212       .  T
C440        C441   1.423       .  S
C441        C442   1.212       .  T
C443        C444   1.211       .  T
C444        C445   1.421       .  S
C445        C446   1.211       .  T
C447        C448   1.205       .  T
C448        C449   1.411       .  S
C449        C450   1.205       .  T
C451        C452   1.201       .  T
C452        C453   1.405       .  S
C453        C454   1.201       .  T
C455        C456   1.202       .  T
C456        C457   1.406       .  S
C457        C458   1.202       .  T
C459        C460   1.213       .  T
C460        C461   1.424       .  S
C461        C462   1.213       .  T
C463        C464   1.337       .  D
C463        H465   1.086       .  S
C464        H466   1.086       .  S
C467        C468   1.337   1_554  D
C467        H469   1.086       .  S
C468        H470   1.087       .  S
C471        C472   1.336   1_655  D
C471        H473   1.086       .  S
C472        H474   1.087       .  S
C475        C476   1.341       .  D
C475        H477   1.086       .  S
C476        H478   1.086       .  S
C479        C480   1.340       .  D
C479        H481   1.086   1_556  S
C480        H482   1.087       .  S
C483        C484   1.341   1_455  D
C483        H485   1.084       .  S
C484        H486   1.086       .  S
C487        C488   1.209       .  T
C488        C489   1.418       .  S
C489        C490   1.210       .  T
C491        C492   1.201       .  T
C492        C493   1.404       .  S
C493        C494   1.200       .  T
C495        C496   1.208       .  T
C496        C497   1.416       .  S
C497        C498   1.208       .  T
C499        C500   1.203       .  T
C500        C501   1.409       .  S
C501        C502   1.204       .  T
C503        C504   1.211       .  T
C504        C505   1.421       .  S
C505        C506   1.211       .  T
C507        C508   1.204       .  T
C508        C509   1.410       .  S
C509        C510   1.204       .  T
C511        C512   1.337   1_545  D
C511        H513   1.086       .  S
C512        H514   1.086       .  S
C515        C516   1.337   1_554  D
C515        H517   1.085       .  S
C516        H518   1.086       .  S
C519        C520   1.349   1_556  D
C519        H521   1.084       .  S
C520        H522   1.085       .  S
C523        C524   1.336       .  D
C523        H525   1.086       .  S
C524        H526   1.088       .  S
C527        C528   1.337       .  D
C527        H529   1.086       .  S
C528        H530   1.087       .  S
C531        C532   1.339   1_545  D
C531        H533   1.086       .  S
C532        H534   1.086       .  S
C535        C536   1.209       .  T
C536        C537   1.417       .  S
C537        C538   1.209       .  T
C539        C540   1.208       .  T
C540        C541   1.416       .  S
C541        C542   1.208       .  T
C543        C544   1.206       .  T
C544        C545   1.413       .  S
C545        C546   1.206       .  T
C547        C548   1.207       .  T
C548        C549   1.414       .  S
C549        C550   1.207       .  T
C551        C552   1.205       .  T
C552        C553   1.411       .  S
C553        C554   1.205       .  T
C555        C556   1.210       .  T
C556        C557   1.418       .  S
C557        C558   1.209       .  T
C559        C560   1.206       .  T
C560        C561   1.413       .  S
C561        C562   1.206       .  T
C563        C564   1.216       .  T
C564        C565   1.428       .  S
C565        C566   1.215       .  T
C567        C568   1.204       .  T
C568        C569   1.408       .  S
C569        C570   1.203       .  T
C571        C572   1.210       .  T
C572        C573   1.420       .  S
C573        C574   1.211       .  T
C575        C576   1.209       .  T
C576        C577   1.417       .  S
C577        C578   1.209       .  T
C579        C580   1.207       .  T
C580        C581   1.414       .  S
C581        C582   1.207       .  T
C583        C584   1.202       .  T
C584        C585   1.407       .  S
C585        C586   1.202       .  T
C587        C588   1.204       .  T
C588        C589   1.410       .  S
C589        C590   1.205       .  T
C591        C592   1.206       .  T
C592        C593   1.413       .  S
C593        C594   1.206       .  T
C595        C596   1.204       .  T
C596        C597   1.409       .  S
C597        C598   1.203       .  T
C599        C600   1.201       .  T
C600        C601   1.405       .  S
C601        C602   1.201       .  T
C603        C604   1.202       .  T
C604        C605   1.407       .  S
C605        C606   1.203       .  T
C607        C608   1.206       .  T
C608        C609   1.413       .  S
C609        C610   1.206       .  T
C611        C612   1.213       .  T
C612        C613   1.424       .  S
C613        C614   1.213       .  T
C615        C616   1.207       .  T
C616        C617   1.414       .  S
C617        C618   1.207       .  T
C619        C620   1.208       .  T
C620        C621   1.416       .  S
C621        C622   1.208       .  T
C623        C624   1.210       .  T
C624        C625   1.419       .  S
C625        C626   1.210       .  T
C627        C628   1.212       .  T
C628        C629   1.422       .  S
C629        C630   1.212       .  T
