geometry optimzed in LAMMPS
_audit_creation_date              2020-11-30 
_audit_creation_method            'lammps2cif' 
_symmetry_space_group_name_H-M    'P1' 
_symmetry_Int_Tables_number       1 
_symmetry_cell_setting            triclinic 
loop_ 
_symmetry_equiv_pos_as_xyz 
  x,y,z 
_cell_length_a                    29.80338427649831 
_cell_length_b                    29.33242718795941 
_cell_length_c                    29.490558810099284 
_cell_angle_alpha                 89.6558758729145 
_cell_angle_beta                  89.73878359042418 
_cell_angle_gamma                 89.99201009210944 
loop_ 
_atom_site_label 
_atom_site_type_symbol 
_atom_site_fract_x 
_atom_site_fract_y 
_atom_site_fract_z 
_atom_site_charge 
C1          C  0.64498439  0.69973466  0.92132850     0.03290
C2          C  0.66720227  0.72697574  0.88774494    -0.12860
C3          C  0.71261411  0.71701581  0.87390562     0.00790
C4          C  0.72858741  0.67312815  0.88753827    -0.11380
C5          C  0.70614045  0.64774475  0.92172815     0.03280
C6          C  0.66265811  0.65813877  0.93311335    -0.10800
H7          H  0.65113514  0.75815534  0.87684283     0.08880
H8          H  0.76058972  0.66060743  0.87587378     0.06410
H9          H  0.64571542  0.63755035  0.95877617     0.06260
C10         C  0.87217782  0.72228997  0.68163954     0.03290
C11         C  0.83876391  0.74471056  0.70774207    -0.12860
C12         C  0.82553177  0.72731770  0.75123057     0.00790
C13         C  0.83934454  0.68102006  0.76038681    -0.11380
C14         C  0.87229484  0.65902209  0.73283086     0.03280
C15         C  0.88309470  0.67766203  0.69132679    -0.10800
H16         H  0.82774407  0.77796229  0.69658084     0.08880
H17         H  0.82908010  0.66416280  0.79140186     0.06410
H18         H  0.90802931  0.66067051  0.67035256     0.06260
C19         C  0.69810256  0.89993970  0.70558787     0.03290
C20         C  0.72308861  0.86403489  0.72387574    -0.12860
C21         C  0.70914316  0.84329252  0.76500379     0.00790
C22         C  0.66335188  0.85212586  0.77839010    -0.11380
C23         C  0.63822165  0.88713109  0.75651658     0.03280
C24         C  0.65383315  0.90491322  0.71617980    -0.10800
H25         H  0.75513122  0.85654343  0.70860340     0.08880
H26         H  0.64920786  0.83646943  0.80844419     0.06410
H27         H  0.63484296  0.93143844  0.69883949     0.06260
C28         C  0.74398104  0.75255740  0.84908511     0.02450
C29         C  0.78799650  0.73999643  0.83172900     0.02450
C30         C  0.80153242  0.75810065  0.78769937     0.02450
C31         C  0.78762824  0.80469157  0.77833300     0.02450
C32         C  0.74324598  0.81716789  0.79503253     0.02450
C33         C  0.72926898  0.79848530  0.83815244     0.02450
C34         C  0.40344300  0.38055572  0.93572965     0.03290
C35         C  0.38446775  0.35288015  0.90190106    -0.12860
C36         C  0.34253561  0.36514724  0.88191954     0.00790
C37         C  0.32790142  0.41088359  0.89113532    -0.11380
C38         C  0.34988403  0.43751868  0.92435219     0.03280
C39         C  0.39167952  0.42523206  0.93881331    -0.10800
H40         H  0.40070429  0.32092600  0.89465732     0.08880
H41         H  0.29715789  0.42409223  0.87704403     0.06410
H42         H  0.40892690  0.44660371  0.96328068     0.06260
C43         C  0.84179905  0.33953060  0.38758242     0.03290
C44         C  0.85730458  0.38467375  0.37790301    -0.12860
C45         C  0.88226655  0.40931616  0.40989578     0.00790
C46         C  0.88138697  0.39689464  0.45457361    -0.11380
C47         C  0.87211779  0.35234641  0.46536134     0.03280
C48         C  0.84692400  0.32547554  0.43430264    -0.10800
H49         H  0.85217862  0.40082275  0.34553390     0.08880
H50         H  0.89989796  0.41755780  0.47870508     0.06410
H51         H  0.83501918  0.29266470  0.44586912     0.06260
C52         C  0.41066070  0.89728888  0.39286903     0.03290
C53         C  0.38798951  0.86259064  0.37020742    -0.12860
C54         C  0.34795433  0.84420435  0.38905018     0.00790
C55         C  0.34113568  0.85349479  0.43657788    -0.11380
C56         C  0.36965088  0.88492108  0.45957674     0.03280
C57         C  0.40781216  0.90041446  0.43866692    -0.10800
H58         H  0.40025154  0.85347291  0.33719901     0.08880
H59         H  0.31139525  0.84127381  0.45389807     0.06410
H60         H  0.42916618  0.92491388  0.45583102     0.06260
C61         C  0.85458047  0.93672827  0.42413691     0.03290
C62         C  0.89754073  0.92420275  0.43383310    -0.12860
C63         C  0.90784686  0.87895113  0.43204680     0.00790
C64         C  0.88386307  0.84956194  0.40299178    -0.11380
C65         C  0.84085256  0.86241056  0.38547986     0.03280
C66         C  0.82887561  0.90932650  0.39393615    -0.10800
H67         H  0.91760173  0.94636588  0.45525191     0.08880
H68         H  0.89823549  0.81654243  0.39655226     0.06410
H69         H  0.79793967  0.92342901  0.38122869     0.06260
C70         C  0.82219830  0.84249357  0.76315730     0.03290
C71         C  0.81055658  0.89001882  0.76141581    -0.12860
C72         C  0.83918702  0.92254211  0.74031155     0.00790
C73         C  0.88349116  0.91181324  0.73314264    -0.11380
C74         C  0.89492808  0.86678133  0.72875957     0.03280
C75         C  0.86711442  0.83263015  0.74838272    -0.10800
H76         H  0.77839417  0.90193104  0.77324464     0.08880
H77         H  0.90514102  0.93747156  0.71759813     0.06410
H78         H  0.88131990  0.79910876  0.75146412     0.06260
C79         C  0.90430322  0.39740179  0.88276620     0.03290
C80         C  0.89826990  0.40447283  0.92800148    -0.12860
C81         C  0.85595177  0.39931520  0.94507598     0.00790
C82         C  0.82434753  0.37196762  0.92236128    -0.11380
C83         C  0.83221317  0.35826563  0.87648160     0.03280
C84         C  0.87583088  0.36789442  0.85931350    -0.10800
H85         H  0.92173872  0.42656959  0.94568525     0.08880
H86         H  0.79333571  0.36457796  0.93981699     0.06410
H87         H  0.88716091  0.35580646  0.82684736     0.06260
C88         C  0.82473431  0.72225876  0.86435531     0.03290
C89         C  0.81719006  0.71161024  0.91130530    -0.12860
C90         C  0.85089401  0.68969155  0.93732533     0.00790
C91         C  0.89362555  0.68606104  0.92051052    -0.11380
C92         C  0.89906886  0.68874999  0.87465455     0.03280
C93         C  0.86902613  0.71399009  0.84857840    -0.10800
H94         H  0.78556991  0.71844123  0.92774411     0.08880
H95         H  0.91870696  0.66759803  0.94010688     0.06410
H96         H  0.88082511  0.72491112  0.81584298     0.06260
C97         C  0.17218039  0.87798716  0.43974300     0.03290
C98         C  0.18949666  0.92085586  0.43849702    -0.12860
C99         C  0.23471906  0.92354028  0.43317860     0.00790
C100        C  0.25712989  0.89225022  0.40595200    -0.11380
C101        C  0.23877986  0.84832684  0.39838559     0.03280
C102        C  0.19362362  0.84255601  0.41503141    -0.10800
H103        H  0.17256271  0.94746223  0.45753734     0.08880
H104        H  0.28909517  0.90300057  0.39283627     0.06410
H105        H  0.17491533  0.81161788  0.41011071     0.06260
C106        C  0.17716546  0.86777177  0.72341371     0.03290
C107        C  0.19609597  0.91013567  0.72262812    -0.12860
C108        C  0.24161188  0.91256322  0.72655923     0.00790
C109        C  0.26502534  0.87949950  0.75075528    -0.11380
C110        C  0.24746573  0.83497874  0.75630162     0.03280
C111        C  0.20080154  0.83066573  0.74411416    -0.10800
H112        H  0.17882169  0.93751715  0.70474048     0.08880
H113        H  0.29764991  0.88922464  0.76250170     0.06410
H114        H  0.18254645  0.79944165  0.74955492     0.06260
O115        O  0.94886133  0.73617555  0.66547865    -0.75130
O116        O  0.89591047  0.77558268  0.62533406    -0.54040
C117        C  0.90748818  0.74673932  0.65575916     0.78600
O118        O  0.10398930  0.87865263  0.69460978    -0.59730
O119        O  0.15761155  0.84853073  0.64817519    -0.52760
C120        C  0.14381328  0.86323590  0.68706100     0.70610
O121        O  0.96808265  0.86717954  0.69809118    -0.74290
O122        O  0.90984337  0.85234118  0.65078480    -0.54850
C123        C  0.92630601  0.85931103  0.69069780     0.76620
O124        O  0.10871079  0.72926927  0.66491524    -0.59430
O125        O  0.16339558  0.76980917  0.62756771    -0.52550
C126        C  0.15062621  0.73996828  0.65647981     0.73210
Zr127      Zr  0.02902565  0.74985149  0.64574652     2.54710
O128        O  0.02685026  0.77257124  0.72529174    -0.80000
O129        O  0.02508497  0.66799182  0.64481500    -0.93410
Zr130      Zr  0.03398327  0.88491369  0.65090137     2.64680
O131        O  0.02857587  0.92885968  0.72075279    -0.98370
O132        O  0.03111747  0.96619558  0.63391512    -0.80430
O133        O  0.99021188  0.81869740  0.64530221    -0.83790
O134        O  0.07277529  0.81483713  0.64724498    -2.18500
O135        O  0.11371007  0.74055277  0.49659599    -0.67180
O136        O  0.16830171  0.77896949  0.53497055    -0.51740
C137        C  0.15576993  0.75140069  0.50461908     0.71590
O138        O  0.97707920  0.86649572  0.46532665    -0.60090
O139        O  0.91599599  0.85986891  0.51059337    -0.52060
C140        C  0.93476379  0.86482356  0.47098059     0.73400
O141        O  0.10284064  0.88952427  0.47416838    -0.71480
O142        O  0.15621771  0.85200205  0.51482716    -0.50160
C143        C  0.14172131  0.87156776  0.47826091     0.74780
O144        O  0.94927820  0.75017046  0.49160677    -0.66810
O145        O  0.89443130  0.78678006  0.53181047    -0.54010
C146        C  0.90738303  0.76168862  0.49928506     0.73160
Zr147      Zr  0.03083287  0.75180903  0.51453235     2.77540
O148        O  0.03102049  0.74523921  0.43235230    -0.97560
O149        O  0.02652780  0.66897646  0.51861091    -0.78380
Zr150      Zr  0.03442276  0.88917791  0.51825113     2.70070
O151        O  0.03104731  0.94036524  0.45274099    -0.79630
O152        O  0.02105778  0.96837236  0.53936893    -0.98710
Zr153      Zr  0.94490989  0.82307264  0.58108282     2.21500
Zr154      Zr  0.11829387  0.81871778  0.58184161     2.11130
O155        O  0.07272057  0.81876934  0.51613499    -2.47400
O156        O  0.99276414  0.82132892  0.51821745    -0.79420
O157        O  0.07526335  0.74940100  0.58043218    -0.71620
O158        O  0.98719432  0.89204584  0.58459343    -2.32570
O159        O  0.98465516  0.75169715  0.57962343    -2.28780
O160        O  0.08129880  0.89055862  0.58443326    -0.73380
H161        H  0.08834728  0.80700821  0.67454637     0.78620
H162        H  0.96770137  0.91827464  0.58551692     0.79710
H163        H  0.08704610  0.81445342  0.48731551     0.81930
H164        H  0.96426456  0.72611398  0.57878225     0.79540
H165        H  0.00201678  0.97656160  0.64645011     0.42580
H166        H  0.04637851  0.98595519  0.52623084     0.41550
H167        H  0.03523489  0.92080271  0.42579302     0.41220
H168        H  0.06160125  0.75439248  0.42272683     0.39160
H169        H  0.05468164  0.65836118  0.50416495     0.42290
H170        H  0.04889300  0.65921059  0.62301270     0.37070
H171        H  0.99512134  0.78050316  0.73147611     0.43190
H172        H  0.03459963  0.90675205  0.74550758     0.39610
H173        H  0.02986083  0.71201515  0.42706929     0.44530
H174        H  0.99672883  0.66167588  0.62864207     0.43250
H175        H  0.05500857  0.94931339  0.72056432     0.43380
H176        H  0.99429674  0.97820800  0.52208940     0.43740
C177        C  0.34949253  0.71158758  0.87299097     0.03290
C178        C  0.33357339  0.66762970  0.88659268    -0.12860
C179        C  0.35498142  0.64319586  0.92192558     0.00790
C180        C  0.39788453  0.65432741  0.93447946    -0.11380
C181        C  0.41527470  0.69603656  0.92282378     0.03280
C182        C  0.39418624  0.72231620  0.88800002    -0.10800
H183        H  0.30186306  0.65488981  0.87456407     0.08880
H184        H  0.41417893  0.63435137  0.96088146     0.06410
H185        H  0.41028933  0.75352162  0.87710602     0.06260
C186        C  0.35962986  0.83263291  0.75890961     0.03290
C187        C  0.40239200  0.84639725  0.77621435    -0.12860
C188        C  0.42743455  0.88146524  0.75450105     0.00790
C189        C  0.41967088  0.89151722  0.70998614    -0.11380
C190        C  0.37923134  0.88022841  0.69123539     0.03280
C191        C  0.35079864  0.84758450  0.71326617    -0.10800
H192        H  0.41414426  0.83422536  0.80859597     0.08880
H193        H  0.44092456  0.91664399  0.69313943     0.06410
H194        H  0.31980452  0.83823145  0.69687052     0.06260
C195        C  0.26053059  0.75124179  0.78638791     0.02450
C196        C  0.27865160  0.79576317  0.77342627     0.02450
C197        C  0.32366042  0.80739065  0.78943452     0.02450
C198        C  0.33471760  0.79174266  0.83461417     0.02450
C199        C  0.31857380  0.74664431  0.84732811     0.02450
C200        C  0.27394455  0.73416847  0.83117051     0.02450
C201        C  0.23353572  0.72098082  0.75143824     0.03290
C202        C  0.21960458  0.73803558  0.70800931    -0.12860
C203        C  0.18578426  0.71566484  0.68253447     0.00790
C204        C  0.17578415  0.67100442  0.69175544    -0.11380
C205        C  0.18605630  0.65292375  0.73349129     0.03280
C206        C  0.21899259  0.67498828  0.76100647    -0.10800
H207        H  0.23179666  0.77020889  0.69523301     0.08880
H208        H  0.15134861  0.65383357  0.67057044     0.06410
H209        H  0.22924861  0.65814809  0.79193425     0.06260
O210        O  0.96597639  0.65799395  0.84994863    -0.75130
O211        O  0.90686852  0.61044497  0.85451172    -0.54040
C212        C  0.92448671  0.65085335  0.85637630     0.78600
O213        O  0.10989216  0.62683363  0.73735229    -0.59730
O214        O  0.16318100  0.59156798  0.78084981    -0.52760
C215        C  0.15124677  0.62111592  0.75141812     0.70610
O216        O  0.94813217  0.63259350  0.74019463    -0.74290
O217        O  0.89167743  0.59175372  0.77391183    -0.54850
C218        C  0.90577337  0.62538357  0.75011537     0.76620
O219        O  0.09151426  0.65555683  0.88562268    -0.59430
O220        O  0.14886316  0.61195030  0.85851900    -0.52550
C221        C  0.13241085  0.64970215  0.87407636     0.73210
Zr222      Zr  0.02399682  0.61136070  0.88231137     2.54710
O223        O  0.01645267  0.68231513  0.92450308    -0.80000
O224        O  0.00495325  0.59686743  0.96139416    -0.93410
Zr225      Zr  0.02823150  0.60485726  0.74642649     2.64680
O226        O  0.02991585  0.68575569  0.73406251    -0.98370
O227        O  0.02458144  0.58369299  0.66685905    -0.80430
O228        O  0.98592586  0.60620707  0.81302632    -0.83790
O229        O  0.06729057  0.60821746  0.81538659    -2.18500
O230        O  0.09230533  0.43636873  0.89444662    -0.67180
O231        O  0.14924409  0.47640336  0.86123205    -0.51740
C232        C  0.13269953  0.44016221  0.88040737     0.71590
O233        O  0.94959618  0.44767633  0.74582947    -0.60090
O234        O  0.89314943  0.48989819  0.77822227    -0.52060
C235        C  0.90721003  0.45530105  0.75634926     0.73400
O236        O  0.11219642  0.45530442  0.74752736    -0.71480
O237        O  0.16569214  0.49491767  0.78594533    -0.50160
C238        C  0.15369794  0.46290721  0.75964967     0.74780
O239        O  0.96997608  0.42962290  0.85646555    -0.66810
O240        O  0.90891694  0.47462208  0.85724466    -0.54010
C241        C  0.92805167  0.43503348  0.86147788     0.73160
Zr242      Zr  0.02485267  0.48028214  0.88830704     2.77540
O243        O  0.01284941  0.41570629  0.93959905    -0.97560
O244        O  0.00673222  0.50052892  0.96607405    -0.78380
Zr245      Zr  0.03045867  0.47621672  0.75178910     2.70070
O246        O  0.03818275  0.39477625  0.74793270    -0.79630
O247        O  0.04748355  0.48953301  0.67145505    -0.98710
Zr248      Zr  0.93899136  0.54255038  0.81697876     2.21500
Zr249      Zr  0.11458960  0.54381151  0.82405961     2.11130
O250        O  0.06798771  0.47861823  0.82129575    -2.47400
O251        O  0.98809952  0.48072141  0.81835969    -0.79420
O252        O  0.07199056  0.54637065  0.89238877    -0.71620
O253        O  0.98198971  0.53972966  0.74742683    -2.32570
O254        O  0.97676644  0.54552359  0.88790559    -2.28780
O255        O  0.07615615  0.54149010  0.75253847    -0.73380
H256        H  0.08273529  0.63659589  0.81097915     0.78620
H257        H  0.96265931  0.53820790  0.72127890     0.79710
H258        H  0.08263351  0.44966985  0.81901603     0.81930
H259        H  0.95556195  0.54623220  0.91276822     0.79540
H260        H  0.99217616  0.58186063  0.65984146     0.42580
H261        H  0.06910950  0.51506532  0.67116548     0.41550
H262        H  0.04352819  0.38534422  0.77975276     0.41220
H263        H  0.01829235  0.38823818  0.92100141     0.39160
H264        H  0.03619203  0.50583275  0.98050480     0.42290
H265        H  0.97696048  0.61429418  0.96640304     0.37070
H266        H  0.01908422  0.70703605  0.90162087     0.43190
H267        H  0.00763904  0.69666923  0.75653171     0.39610
H268        H  0.03812380  0.41622384  0.96127859     0.44530
H269        H  0.02809341  0.61292953  0.97922312     0.43250
H270        H  0.05912693  0.69536767  0.74666896     0.43380
H271        H  0.06680593  0.46353510  0.66266409     0.43740
C272        C  0.16128780  0.40095187  0.89076407     0.03290
C273        C  0.16773091  0.39431915  0.93610213    -0.12860
C274        C  0.21148086  0.39209209  0.94915702     0.00790
C275        C  0.24322559  0.37134627  0.91993601    -0.11380
C276        C  0.23362481  0.36422156  0.87266608     0.03280
C277        C  0.18984325  0.37894326  0.85952583    -0.10800
H278        H  0.14333484  0.40867526  0.95967872     0.08880
H279        H  0.27474210  0.36185435  0.93491879     0.06410
H280        H  0.17618642  0.37281662  0.82658692     0.06260
C281        C  0.16223332  0.68769898  0.88442963     0.03290
C282        C  0.19282643  0.70667683  0.85313138    -0.12860
C283        C  0.23794336  0.71637055  0.86580837     0.00790
C284        C  0.24721366  0.70779246  0.91295560    -0.11380
C285        C  0.21375747  0.68999626  0.94255616     0.03280
C286        C  0.16981734  0.69212076  0.92979647    -0.10800
H287        H  0.17971047  0.71436635  0.82020762     0.08880
H288        H  0.27941186  0.71472865  0.92771208     0.06410
H289        H  0.14433455  0.67946791  0.95331710     0.06260
C290        C  0.38322706  0.83865150  0.94725828     0.03290
C291        C  0.36021904  0.81091079  0.91665236    -0.12860
C292        C  0.35223614  0.82564857  0.87137967     0.00790
C293        C  0.36315161  0.87290061  0.86287644    -0.11380
C294        C  0.38406550  0.90009711  0.89668060     0.03280
C295        C  0.38462238  0.88477580  0.94058017    -0.10800
H296        H  0.34998385  0.77800822  0.92903479     0.08880
H297        H  0.35670078  0.88891472  0.83061859     0.06410
H298        H  0.40103933  0.90558420  0.96611666     0.06260
C299        C  0.67309222  0.83997195  0.94865418     0.03290
C300        C  0.69979312  0.81428820  0.91928792    -0.12860
C301        C  0.70916926  0.83038143  0.87482750     0.00790
C302        C  0.69720091  0.87721904  0.86669091    -0.11380
C303        C  0.67262844  0.90219625  0.89938974     0.03280
C304        C  0.66899560  0.88586679  0.94264247    -0.10800
H305        H  0.71086347  0.78154182  0.93135405     0.08880
H306        H  0.70536897  0.89463112  0.83552562     0.06410
H307        H  0.64944639  0.90512475  0.96723172     0.06260
C308        C  0.22336348  0.73793952  0.40011690     0.03290
C309        C  0.21988238  0.75212398  0.44680452    -0.12860
C310        C  0.19123311  0.72866211  0.47789280     0.00790
C311        C  0.17945058  0.68502929  0.46853716    -0.11380
C312        C  0.17191789  0.67639919  0.42386695     0.03280
C313        C  0.19978451  0.69667926  0.39057956    -0.10800
H314        H  0.23603621  0.78268219  0.45862906     0.08880
H315        H  0.16044386  0.66605561  0.49402651     0.06410
H316        H  0.20232913  0.67956605  0.35859953     0.06260
C317        C  0.32216718  0.80719696  0.31268746     0.02450
C318        C  0.31184200  0.82147783  0.35840115     0.02450
C319        C  0.26759018  0.81051140  0.37560055     0.02450
C320        C  0.24859598  0.76701902  0.36303381     0.02450
C321        C  0.26039603  0.74959422  0.31786737     0.02450
C322        C  0.30543111  0.76214782  0.29985474     0.02450
C323        C  0.33875496  0.72580644  0.27840458     0.03290
C324        C  0.32456408  0.68069195  0.26738929    -0.12860
C325        C  0.34913408  0.65349240  0.23633994     0.00790
C326        C  0.39318243  0.66421005  0.22659575    -0.11380
C327        C  0.41030555  0.70669436  0.23665983     0.03280
C328        C  0.38534630  0.73516427  0.26716629    -0.10800
H329        H  0.29274753  0.66784404  0.27933377     0.08880
H330        H  0.41160961  0.64232767  0.20343657     0.06410
H331        H  0.40103854  0.76623866  0.27838983     0.06260
O332        O  0.33476726  0.45773892  0.00063444    -0.75130
O333        O  0.29984266  0.49646801  0.94352474    -0.54040
C334        C  0.32615318  0.46561853  0.95783613     0.78600
O335        O  0.18889355  0.43343493  0.15052697    -0.59730
O336        O  0.21988794  0.47640025  0.20650700    -0.52760
C337        C  0.20245314  0.43907870  0.19113752     0.70610
O338        O  0.21609927  0.42463070  0.02101114    -0.74290
O339        O  0.22606069  0.47118934  0.96020221    -0.54850
C340        C  0.22136181  0.43104947  0.97839123     0.76620
O341        O  0.33599981  0.45779306  0.16457281    -0.59430
O342        O  0.29615268  0.49544301  0.21912226    -0.52550
C343        C  0.32403742  0.46497286  0.20664829     0.73210
Zr344      Zr  0.32613119  0.47852097  0.08254979     2.54710
O345        O  0.33761583  0.39637442  0.08362125    -0.80000
O346        O  0.40717867  0.48624500  0.08075473    -0.93410
Zr347      Zr  0.19125856  0.47608570  0.08050865     2.64680
O348        O  0.14323082  0.40892395  0.07421013    -0.98370
O349        O  0.11250566  0.49384530  0.06710248    -0.80430
O350        O  0.25965931  0.47773164  0.04080452    -0.83790
O351        O  0.25853744  0.47748028  0.12294477    -2.18500
O352        O  0.33807456  0.63259499  0.15963087    -0.67180
O353        O  0.29954345  0.59365459  0.21492416    -0.51740
C354        C  0.32729358  0.62442176  0.20181262     0.71590
O355        O  0.21024122  0.65739189  0.01514266    -0.60090
O356        O  0.22810311  0.61115785  0.95625090    -0.52060
C357        C  0.22039202  0.65101252  0.97329652     0.73400
O358        O  0.18757838  0.65219847  0.14884417    -0.71480
O359        O  0.22030325  0.61084175  0.20562364    -0.50160
C360        C  0.20239427  0.64774655  0.18943397     0.74780
O361        O  0.33818214  0.62854991  0.99904638    -0.66810
O362        O  0.30329984  0.58652661  0.94450780    -0.54010
C363        C  0.33016401  0.61774090  0.95701903     0.73160
Zr364      Zr  0.32195921  0.61012809  0.07991865     2.77540
O365        O  0.30382518  0.69122721  0.07547781    -0.97560
O366        O  0.40212200  0.61079978  0.08063641    -0.78380
Zr367      Zr  0.18873129  0.60838077  0.07913968     2.70070
O368        O  0.14335901  0.67751667  0.07530354    -0.79630
O369        O  0.11018498  0.58873877  0.06765898    -0.98710
Zr370      Zr  0.25705262  0.54170643  0.99294537     2.21500
Zr371      Zr  0.25460253  0.54355743  0.16930045     2.11130
O372        O  0.25592030  0.60824381  0.12135446    -2.47400
O373        O  0.25615710  0.60615018  0.03857834    -0.79420
O374        O  0.32411665  0.54485625  0.12747236    -0.71620
O375        O  0.18679389  0.54187986  0.03189100    -2.32570
O376        O  0.32545279  0.54363566  0.03574610    -2.28780
O377        O  0.18562821  0.54239069  0.12795537    -0.73380
H378        H  0.26286894  0.44902999  0.13851900     0.78620
H379        H  0.16199000  0.54149810  0.01092706     0.79710
H380        H  0.26105623  0.63640474  0.13673004     0.81930
H381        H  0.35168499  0.54388237  0.01637227     0.79540
H382        H  0.10656741  0.48355539  0.03577087     0.42580
H383        H  0.09384125  0.60312988  0.09314153     0.41550
H384        H  0.16491535  0.70309565  0.07759662     0.41220
H385        H  0.27387173  0.69302753  0.06134337     0.39160
H386        H  0.40923583  0.59730464  0.11062738     0.42290
H387        H  0.41279779  0.51922331  0.08437291     0.37070
H388        H  0.31190045  0.38400500  0.06647511     0.43190
H389        H  0.16273612  0.38254599  0.08142166     0.39610
H390        H  0.29873925  0.70097909  0.10717614     0.44530
H391        H  0.41489653  0.48010382  0.04870254     0.43250
H392        H  0.12182308  0.41048514  0.09994581     0.43380
H393        H  0.10090591  0.60613450  0.04038673     0.43740
O394        O  0.91214211  0.48194356  0.40136033    -0.75130
O395        O  0.95975853  0.42221057  0.39393644    -0.54040
C396        C  0.91987954  0.43934860  0.39867731     0.78600
O397        O  0.94513112  0.62757077  0.27789001    -0.59730
O398        O  0.98173432  0.68279008  0.31782769    -0.52760
C399        C  0.95157555  0.66999000  0.29012489     0.70610
O400        O  0.94573647  0.46180025  0.28210231    -0.74290
O401        O  0.98451577  0.40489206  0.31768406    -0.54850
C402        C  0.95335992  0.41885016  0.29187022     0.76620
O403        O  0.91758540  0.61195758  0.42365560    -0.59430
O404        O  0.96101561  0.66865426  0.39347588    -0.52550
C405        C  0.92358266  0.65278605  0.40994416     0.73210
Zr406      Zr  0.96103255  0.54341997  0.42336208     2.54710
O407        O  0.89229403  0.53968080  0.46859920    -0.80000
O408        O  0.97858751  0.53338963  0.50339858    -0.93410
Zr409      Zr  0.96691198  0.54466455  0.28681079     2.64680
O410        O  0.88727516  0.54295024  0.26953653    -0.98370
O411        O  0.97920886  0.54353992  0.20513094    -0.80430
O412        O  0.96459902  0.50281486  0.35490942    -0.83790
O413        O  0.96477557  0.58513335  0.35475656    -2.18500
O414        O  0.13356851  0.60966025  0.43218791    -0.67180
O415        O  0.09709927  0.66690800  0.39516068    -0.51740
C416        C  0.13171231  0.64965761  0.41561506     0.71590
O417        O  0.11937089  0.46279169  0.28865197    -0.60090
O418        O  0.07773388  0.40611176  0.32187140    -0.52060
C419        C  0.11121705  0.42003817  0.29874927     0.73400
O420        O  0.11933935  0.62704194  0.28326280    -0.71480
O421        O  0.08023075  0.68238961  0.32085942    -0.50160
C422        C  0.11230502  0.66945171  0.29509110     0.74780
O423        O  0.14095171  0.48802463  0.39647228    -0.66810
O424        O  0.09659424  0.42613539  0.39854855    -0.54010
C425        C  0.13583187  0.44537666  0.40062241     0.73160
Zr426      Zr  0.08971920  0.54265952  0.42763380     2.77540
O427        O  0.15301508  0.53135566  0.47895238    -0.97560
O428        O  0.07228789  0.52391149  0.50634162    -0.78380
Zr429      Zr  0.09515059  0.54484615  0.29034496     2.70070
O430        O  0.17577289  0.54436622  0.27690169    -0.79630
O431        O  0.08692799  0.54317182  0.20826594    -0.98710
Zr432      Zr  0.02828672  0.45582123  0.35985883     2.21500
Zr433      Zr  0.02912058  0.63286253  0.35993117     2.11130
O434        O  0.09280391  0.58435484  0.35892380    -2.47400
O435        O  0.08997134  0.50421350  0.35842787    -0.79420
O436        O  0.02566348  0.59200742  0.43006159    -0.71620
O437        O  0.03104601  0.49764210  0.28863685    -2.32570
O438        O  0.02499211  0.49473153  0.42996363    -2.28780
O439        O  0.03104374  0.59224339  0.28859266    -0.73380
H440        H  0.93667372  0.60022078  0.35004862     0.78620
H441        H  0.03202898  0.47744151  0.26288074     0.79710
H442        H  0.12179522  0.59814146  0.35588357     0.81930
H443        H  0.02381222  0.47379618  0.45532776     0.79540
H444        H  0.96634407  0.51410766  0.19528598     0.42580
H445        H  0.09554090  0.57420682  0.19808813     0.41550
H446        H  0.18888067  0.53705987  0.30686771     0.41220
H447        H  0.18026079  0.53557448  0.46003796     0.39160
H448        H  0.06802037  0.55383284  0.52114264     0.42290
H449        H  0.95871983  0.50857891  0.51430618     0.37070
H450        H  0.86724906  0.54269043  0.44681471     0.43190
H451        H  0.87475640  0.57090014  0.28336029     0.39610
H452        H  0.15306379  0.55780991  0.49967255     0.44530
H453        H  0.96703907  0.56124104  0.51825530     0.43250
H454        H  0.88632157  0.54875691  0.23648959     0.43380
H455        H  0.11178455  0.52343143  0.19771645     0.43740
C456        C  0.19391574  0.40082157  0.22195446     0.03290
C457        C  0.14999727  0.39606600  0.23416785    -0.12860
C458        C  0.14118403  0.38581356  0.27862531     0.00790
C459        C  0.17305309  0.36049512  0.30412584    -0.11380
C460        C  0.21897309  0.35736493  0.28937830     0.03280
C461        C  0.22737463  0.37613283  0.24528550    -0.10800
H462        H  0.12465514  0.41419981  0.21459231     0.08880
H463        H  0.16252540  0.34707378  0.33660544     0.06410
H464        H  0.25910676  0.37254997  0.22833382     0.06260
C465        C  0.87277610  0.40186386  0.21358120     0.03290
C466        C  0.91677562  0.39815212  0.22520458    -0.12860
C467        C  0.92563749  0.38475117  0.26865744     0.00790
C468        C  0.89515818  0.35507440  0.29141509    -0.11380
C469        C  0.84978053  0.34999350  0.27562956     0.03280
C470        C  0.84080671  0.37222021  0.23334710    -0.10800
H471        H  0.94134945  0.41906897  0.20721252     0.08880
H472        H  0.90575849  0.34013725  0.32313902     0.06410
H473        H  0.80949679  0.36821597  0.21586235     0.06260
C474        C  0.92219897  0.70507343  0.26906388     0.03290
C475        C  0.91273897  0.69462844  0.22510994    -0.12860
C476        C  0.86858492  0.69121059  0.21365957     0.00790
C477        C  0.83588844  0.71783268  0.23635284    -0.11380
C478        C  0.84498169  0.73749881  0.27961120     0.03280
C479        C  0.89122188  0.73272618  0.29371844    -0.10800
H480        H  0.93742340  0.67546733  0.20564165     0.08880
H481        H  0.80419715  0.72239909  0.21969926     0.06410
H482        H  0.90285353  0.74731102  0.32499456     0.06260
O483        O  0.72116415  0.63137631  0.99888747    -0.75130
O484        O  0.75723666  0.59052356  0.94381945    -0.54040
C485        C  0.73002150  0.62141614  0.95671985     0.78600
O486        O  0.87238452  0.65759953  0.14307827    -0.59730
O487        O  0.84276527  0.61506259  0.20105902    -0.52760
C488        C  0.85938122  0.65249711  0.18416522     0.70610
O489        O  0.85059514  0.66082585  0.01141450    -0.74290
O490        O  0.83469743  0.61268474  0.95366219    -0.54850
C491        C  0.84219022  0.65289343  0.96963147     0.76620
O492        O  0.72529263  0.63680489  0.15876032    -0.59430
O493        O  0.76471321  0.59830810  0.21347804    -0.52550
C494        C  0.73746341  0.62977308  0.20067865     0.73210
Zr495      Zr  0.73839395  0.61148687  0.07916942     2.54710
O496        O  0.75950420  0.69180673  0.07471231    -0.80000
O497        O  0.65805368  0.60878004  0.08454690    -0.93410
Zr498      Zr  0.87185082  0.61218698  0.07527414     2.64680
O499        O  0.91800345  0.68022107  0.06428006    -0.98370
O500        O  0.95069194  0.59101154  0.07159988    -0.80430
O501        O  0.80384750  0.60952317  0.03611549    -0.83790
O502        O  0.80512205  0.61020067  0.11867800    -2.18500
O503        O  0.73055603  0.45594900  0.16320333    -0.67180
O504        O  0.76955485  0.49497352  0.21723997    -0.51740
C505        C  0.74343628  0.46280611  0.20503821     0.71590
O506        O  0.84675655  0.42932954  0.01716986    -0.60090
O507        O  0.83936013  0.47727589  0.95739158    -0.52060
C508        C  0.84421635  0.43688294  0.97473277     0.73400
O509        O  0.87658162  0.43691806  0.14401260    -0.71480
O510        O  0.84444043  0.47755266  0.20135633    -0.50160
C511        C  0.86287466  0.44107435  0.18469631     0.74780
O512        O  0.72893842  0.45886230  0.99844991    -0.66810
O513        O  0.76366091  0.49876221  0.94148248    -0.54010
C514        C  0.73820913  0.46710503  0.95564421     0.73160
Zr515      Zr  0.73649894  0.47973992  0.08096916     2.77540
O516        O  0.72577799  0.39755559  0.07884750    -0.97560
O517        O  0.65511822  0.48709256  0.08334672    -0.78380
Zr518      Zr  0.87146082  0.48053318  0.07586004     2.70070
O519        O  0.91797862  0.41199355  0.07406191    -0.79630
O520        O  0.94933405  0.49837327  0.05782407    -0.98710
Zr521      Zr  0.80399127  0.54500985  0.99088754     2.21500
Zr522      Zr  0.80816244  0.54611334  0.16712144     2.11130
O523        O  0.80478386  0.48099848  0.11942849    -2.47400
O524        O  0.80251990  0.48031378  0.03778830    -0.79420
O525        O  0.73813679  0.54592685  0.12656886    -0.71620
O526        O  0.87476863  0.54639251  0.02763923    -2.32570
O527        O  0.73572754  0.54521047  0.03452134    -2.28780
O528        O  0.87642547  0.54624339  0.12397151    -0.73380
H529        H  0.79989005  0.63850217  0.13374552     0.78620
H530        H  0.89939193  0.54664110  0.00620996     0.79710
H531        H  0.80186071  0.45206058  0.13434430     0.81930
H532        H  0.70952767  0.54511030  0.01534551     0.79540
H533        H  0.96194710  0.60474693  0.04308009     0.42580
H534        H  0.96654637  0.48863288  0.08484365     0.41550
H535        H  0.89689413  0.38588921  0.07440500     0.41220
H536        H  0.73870418  0.38585395  0.10750889     0.39160
H537        H  0.64595887  0.47038549  0.11116470     0.42290
H538        H  0.65219940  0.59557409  0.11499023     0.37070
H539        H  0.76746489  0.69730488  0.04251150     0.43190
H540        H  0.89813021  0.70631365  0.07140524     0.39610
H541        H  0.69301129  0.39367347  0.08254357     0.44530
H542        H  0.64975737  0.58418023  0.06332019     0.43250
H543        H  0.94014532  0.67975876  0.08921315     0.43380
H544        H  0.95791063  0.47657204  0.03384033     0.43740
C545        C  0.70942668  0.89985747  0.44983846     0.03290
C546        C  0.74142060  0.87676067  0.42318701    -0.12860
C547        C  0.73075413  0.86404833  0.37760718     0.00790
C548        C  0.68635445  0.87605401  0.36403615    -0.11380
C549        C  0.65852572  0.90030749  0.39352367     0.03280
C550        C  0.66545387  0.89680041  0.43878429    -0.10800
H551        H  0.77287170  0.86881472  0.43907922     0.08880
H552        H  0.67146829  0.86614726  0.33257516     0.06410
H553        H  0.64060052  0.91144259  0.46169283     0.06260
C554        C  0.88582408  0.68327939  0.41838537     0.03290
C555        C  0.88219082  0.69620000  0.46250663    -0.12860
C556        C  0.87283279  0.74100204  0.47030151     0.00790
C557        C  0.84654195  0.76572247  0.43835614    -0.11380
C558        C  0.84189403  0.74991644  0.39244877     0.03280
C559        C  0.86019295  0.70552498  0.38471253    -0.10800
H560        H  0.90053895  0.67698659  0.48815747     0.08880
H561        H  0.83351345  0.79840728  0.44858757     0.06410
H562        H  0.85602237  0.68792837  0.35316384     0.06260
C563        C  0.76452951  0.84030162  0.34538388     0.02450
C564        C  0.80827436  0.82702632  0.36228427     0.02450
C565        C  0.82139557  0.78019162  0.35358145     0.02450
C566        C  0.80776896  0.76066792  0.31016005     0.02450
C567        C  0.76281511  0.77362638  0.29273438     0.02450
C568        C  0.74883827  0.82098992  0.30279079     0.02450
C569        C  0.72878848  0.73620859  0.27288942     0.03290
C570        C  0.74276389  0.69031164  0.26327233    -0.12860
C571        C  0.71725514  0.66094153  0.23498386     0.00790
C572        C  0.67291584  0.67099620  0.22659335    -0.11380
C573        C  0.65603406  0.71396048  0.23455138     0.03280
C574        C  0.68175462  0.74450530  0.26248458    -0.10800
H575        H  0.77458927  0.67772539  0.27503213     0.08880
H576        H  0.65370130  0.64762174  0.20579753     0.06410
H577        H  0.66585550  0.77574699  0.27303433     0.06260
O578        O  0.64050917  0.81492126  0.01505640    -0.75130
O579        O  0.59574523  0.81927394  0.95428697    -0.54040
C580        C  0.63508316  0.82105560  0.97292221     0.78600
O581        O  0.62324238  0.71177966  0.16013382    -0.59730
O582        O  0.58719111  0.75343354  0.21462800    -0.52760
C583        C  0.61945825  0.72744812  0.20158600     0.70610
O584        O  0.61922325  0.70878014  0.99768755    -0.74290
O585        O  0.57811457  0.73950438  0.93975167    -0.54850
C586        C  0.61182453  0.71729789  0.95464702     0.76620
O587        O  0.63725747  0.85848183  0.13653509    -0.59430
O588        O  0.59821872  0.82965967  0.19704827    -0.52550
C589        C  0.63367616  0.84766805  0.17814708     0.73210
Zr590      Zr  0.59341602  0.85092372  0.07059923     2.54710
O591        O  0.66185771  0.89572987  0.06073729    -0.80000
O592        O  0.57733993  0.92934910  0.04883039    -0.93410
Zr593      Zr  0.59373579  0.71457232  0.07935403     2.64680
O594        O  0.67324562  0.70148471  0.07432478    -0.98370
O595        O  0.57713493  0.63376828  0.08031640    -0.80430
O596        O  0.59045392  0.78029432  0.03494912    -0.83790
O597        O  0.59325671  0.78487645  0.11631699    -2.18500
O598        O  0.42336098  0.85687970  0.14122251    -0.67180
O599        O  0.46429588  0.82789530  0.20002603    -0.51740
C600        C  0.42808250  0.84539476  0.18262429     0.71590
O601        O  0.44023817  0.70588514  0.99948197    -0.60090
O602        O  0.48025619  0.73794068  0.94102744    -0.52060
C603        C  0.44743657  0.71457115  0.95629109     0.73400
O604        O  0.43942367  0.70938177  0.16103645    -0.71480
O605        O  0.47730502  0.74920010  0.21529984    -0.50160
C606        C  0.44496863  0.72306095  0.20278135     0.74780
O607        O  0.41523176  0.82272357  0.01674688    -0.66810
O608        O  0.46032624  0.81764071  0.95515127    -0.54010
C609        C  0.42116724  0.82273236  0.97400863     0.73160
Zr610      Zr  0.46603977  0.85161884  0.07301317     2.77540
O611        O  0.40153362  0.90211906  0.06307541    -0.97560
O612        O  0.48535998  0.93054412  0.05642974    -0.78380
Zr613      Zr  0.46698811  0.71476757  0.08044764     2.70070
O614        O  0.38716192  0.70530790  0.08326751    -0.79630
O615        O  0.48187106  0.63358869  0.08646383    -0.98710
Zr616      Zr  0.52860839  0.78137050  0.98694289     2.21500
Zr617      Zr  0.53102959  0.78925269  0.16658924     2.11130
O618        O  0.46802072  0.78486904  0.11789556    -2.47400
O619        O  0.46688905  0.78105927  0.03603772    -0.79420
O620        O  0.53045758  0.85740919  0.12103431    -0.71620
O621        O  0.52993405  0.71252538  0.03222010    -2.32570
O622        O  0.52901017  0.85361282  0.02301481    -2.28780
O623        O  0.53070088  0.71655143  0.12823719    -0.73380
H624        H  0.62208351  0.78298466  0.13032450     0.78620
H625        H  0.52980117  0.68581892  0.01321953     0.79710
H626        H  0.43973967  0.78206647  0.13311884     0.81930
H627        H  0.52857243  0.87826045  0.00114158     0.79540
H628        H  0.57810877  0.62486984  0.04797403     0.42580
H629        H  0.49817569  0.62463423  0.05866060     0.41550
H630        H  0.37619126  0.73702247  0.08640517     0.41220
H631        H  0.37481376  0.88316890  0.06988779     0.39160
H632        H  0.48934252  0.94468998  0.08653563     0.42290
H633        H  0.59363351  0.93386814  0.01985040     0.37070
H634        H  0.68690454  0.87360152  0.06245935     0.43190
H635        H  0.68410696  0.72860386  0.05738019     0.39610
H636        H  0.40275373  0.92428947  0.08824297     0.44530
H637        H  0.59325040  0.94851901  0.07112190     0.43250
H638        H  0.68419262  0.70619700  0.10554127     0.43380
H639        H  0.50256524  0.62944638  0.11227104     0.43740
C640        C  0.39025029  0.85842150  0.21118288     0.03290
C641        C  0.36246603  0.82855812  0.23602991    -0.12860
C642        C  0.34255689  0.84247605  0.27766164     0.00790
C643        C  0.34695856  0.89094259  0.28680415    -0.11380
C644        C  0.37326023  0.91994828  0.25766901     0.03280
C645        C  0.38535321  0.90429948  0.21590200    -0.10800
H646        H  0.35690853  0.79553279  0.22183533     0.08880
H647        H  0.33416073  0.90513160  0.31800835     0.06410
H648        H  0.40377706  0.92685072  0.19297066     0.06260
C649        C  0.67135364  0.86359335  0.20479993     0.03290
C650        C  0.70269026  0.83657840  0.22834310    -0.12860
C651        C  0.72393600  0.85341141  0.26793102     0.00790
C652        C  0.71712693  0.90211589  0.27512176    -0.11380
C653        C  0.68672282  0.92796855  0.24728512     0.03280
C654        C  0.67392113  0.90989398  0.20705439    -0.10800
H655        H  0.71005634  0.80355637  0.21483962     0.08880
H656        H  0.73129808  0.91883571  0.30426448     0.06410
H657        H  0.65325781  0.93038707  0.18436071     0.06260
C658        C  0.66903960  0.37801054  0.22529768     0.03290
C659        C  0.68037790  0.42259731  0.23202747    -0.12860
C660        C  0.72454608  0.43173592  0.24027814     0.00790
C661        C  0.75052806  0.39843359  0.26392888    -0.11380
C662        C  0.73747436  0.35095764  0.26560933     0.03280
C663        C  0.69368326  0.34281843  0.24734096    -0.10800
H664        H  0.66013561  0.44902927  0.21601836     0.08880
H665        H  0.78166524  0.40981918  0.27839670     0.06410
H666        H  0.67735664  0.31037624  0.25064311     0.06260
C667        C  0.82362311  0.30747598  0.34917967     0.02450
C668        C  0.81263505  0.32535025  0.30448639     0.02450
C669        C  0.76935484  0.31214561  0.28506271     0.02450
C670        C  0.75410286  0.26498521  0.29498529     0.02450
C671        C  0.76806368  0.24629640  0.33916837     0.02450
C672        C  0.81078562  0.26063563  0.35808989     0.02450
C673        C  0.65987990  0.19043105  0.38821111     0.03290
C674        C  0.68863389  0.21383085  0.35844917    -0.12860
C675        C  0.73316772  0.22457346  0.37191151     0.00790
C676        C  0.74300380  0.21326800  0.41822915    -0.11380
C677        C  0.71092668  0.19094924  0.44566036     0.03280
C678        C  0.66711051  0.19200519  0.43361907    -0.10800
H679        H  0.67476256  0.22386573  0.32640413     0.08880
H680        H  0.77412688  0.22177468  0.43430570     0.06410
H681        H  0.64240233  0.17662713  0.45641401     0.06260
O682        O  0.44756455  0.95006859  0.26221780    -0.75130
O683        O  0.38954949  0.99157847  0.29182173    -0.54040
C684        C  0.40497269  0.95601950  0.27248218     0.78600
O685        O  0.59210949  0.93673065  0.39583962    -0.59730
O686        O  0.64953710  0.97636651  0.36301470    -0.52760
C687        C  0.63214097  0.94009476  0.38176159     0.70610
O688        O  0.47271971  0.93200819  0.36229937    -0.74290
O689        O  0.41158965  0.97581726  0.36915318    -0.54850
C690        C  0.43154237  0.93642563  0.37124072     0.76620
O691        O  0.61063587  0.95515261  0.25199819    -0.59430
O692        O  0.66602330  0.99457514  0.28825962    -0.52550
C693        C  0.65278926  0.96162612  0.26375548     0.73210
Zr694      Zr  0.52795620  0.97796562  0.25715659     2.54710
O695        O  0.52924490  0.89660286  0.24170969    -0.80000
O696        O  0.52313744  0.98581164  0.17512444    -0.93410
Zr697      Zr  0.52753497  0.98218856  0.39341167     2.64680
O698        O  0.51569920  0.91468097  0.44125623    -0.98370
O699        O  0.52470086  0.00487169  0.47267832    -0.80430
O700        O  0.48801749  0.98357408  0.32515270    -0.83790
O701        O  0.56822739  0.98049036  0.32482026    -2.18500
O702        O  0.60855715  0.13328011  0.24363161    -0.67180
O703        O  0.66353157  0.09698681  0.28397634    -0.51740
C704        C  0.65038692  0.12841437  0.25684129     0.71590
O705        O  0.46915508  0.15807157  0.35625395    -0.60090
O706        O  0.41027160  0.11257860  0.36870502    -0.52060
C707        C  0.42907633  0.15249328  0.36897794     0.73400
O708        O  0.59155378  0.15709537  0.38863776    -0.71480
O709        O  0.64923651  0.11455785  0.36038521    -0.50160
C710        C  0.63204066  0.15202893  0.37625832     0.74780
O711        O  0.44827392  0.13865008  0.25503391    -0.66810
O712        O  0.39102886  0.09910636  0.28885385    -0.54010
C713        C  0.40611570  0.13377733  0.26704796     0.73160
Zr714      Zr  0.52733936  0.10691217  0.25293509     2.77540
O715        O  0.52851214  0.18730048  0.23817848    -0.97560
O716        O  0.52201259  0.08577133  0.17351539    -0.78380
Zr717      Zr  0.52651641  0.11153063  0.38880076     2.70070
O718        O  0.51971671  0.18230031  0.43149730    -0.79630
O719        O  0.51472781  0.09755800  0.46954283    -0.98710
Zr720      Zr  0.43812912  0.04483799  0.32678229     2.21500
Zr721      Zr  0.61609661  0.04518741  0.32555621     2.11130
O722        O  0.56761723  0.10866990  0.32048085    -2.47400
O723        O  0.48662357  0.10705081  0.32079780    -0.79420
O724        O  0.57523372  0.04278555  0.25467549    -0.71620
O725        O  0.47872961  0.04653985  0.39632368    -2.32570
O726        O  0.47979039  0.04245539  0.25546097    -2.28780
O727        O  0.57575803  0.04729070  0.39529937    -0.73380
H728        H  0.58153100  0.95099233  0.32181033     0.78620
H729        H  0.45938392  0.04699435  0.42266441     0.79710
H730        H  0.58176656  0.13755991  0.31557769     0.81930
H731        H  0.45981722  0.04171368  0.22975474     0.79540
H732        H  0.50718598  0.98129198  0.48895047     0.42580
H733        H  0.54053558  0.11211091  0.48475974     0.41550
H734        H  0.52032126  0.20718063  0.40864430     0.41220
H735        H  0.55444328  0.19188281  0.21773244     0.39160
H736        H  0.55334122  0.07924669  0.16428886     0.42290
H737        H  0.49194359  0.97680147  0.16802065     0.37070
H738        H  0.52435130  0.88202284  0.27169244     0.43190
H739        H  0.52022498  0.88811805  0.42117700     0.39610
H740        H  0.50176910  0.19286845  0.21931190     0.44530
H741        H  0.54181545  0.96061907  0.16320616     0.43250
H742        H  0.54140071  0.91340472  0.46240436     0.43380
H743        H  0.48837354  0.11596369  0.47848667     0.43740
O744        O  0.47037774  0.35996039  0.96909147    -0.75130
O745        O  0.40974546  0.36206014  0.01495266    -0.54040
C746        C  0.42848274  0.36430988  0.97497473     0.78600
O747        O  0.60770204  0.24345969  0.99554905    -0.59730
O748        O  0.66308391  0.28233288  0.03227580    -0.52760
C749        C  0.64962990  0.25538460  0.00152887     0.70610
O750        O  0.44742208  0.25131051  0.99048929    -0.74290
O751        O  0.39070080  0.28326223  0.03195332    -0.54850
C752        C  0.40517862  0.26115589  0.99753551     0.76620
O753        O  0.59263161  0.39258567  0.97419094    -0.59430
O754        O  0.64900295  0.35798172  0.01340088    -0.52550
C755        C  0.63238898  0.37718903  0.97745373     0.73210
Zr756      Zr  0.52646211  0.38916411  0.01937120     2.54710
O757        O  0.51577198  0.43723683  0.95237333    -0.80000
O758        O  0.51477470  0.46908051  0.03857108    -0.93410
Zr759      Zr  0.52655123  0.25194125  0.01903564     2.64680
O760        O  0.52573239  0.23425128  0.93858386    -0.98370
O761        O  0.52263878  0.16993475  0.03169535    -0.80430
O762        O  0.48661859  0.32031851  0.02193868    -0.83790
O763        O  0.56721831  0.32013935  0.01793581    -2.18500
O764        O  0.59825170  0.38719771  0.19266086    -0.67180
O765        O  0.65294885  0.35426855  0.14954009    -0.51740
C766        C  0.63815621  0.37167018  0.18704454     0.71590
O767        O  0.44798940  0.24390249  0.17576458    -0.60090
O768        O  0.39199657  0.27924789  0.13598280    -0.52060
C769        C  0.40597638  0.25408283  0.16869195     0.73400
O770        O  0.60777647  0.23740525  0.16862160    -0.71480
O771        O  0.66211110  0.27695572  0.12977188    -0.50160
C772        C  0.64955288  0.24845636  0.16023375     0.74780
O773        O  0.46886642  0.36413992  0.20004164    -0.66810
O774        O  0.40837310  0.35933866  0.15375348    -0.54010
C775        C  0.42658745  0.36377916  0.19350956     0.73160
Zr776      Zr  0.52869987  0.38857069  0.14967069     2.77540
O777        O  0.52194179  0.43600860  0.21714340    -0.97560
O778        O  0.51763015  0.46906372  0.13253693    -0.78380
Zr779      Zr  0.52715671  0.25302946  0.14921581     2.70070
O780        O  0.53002368  0.27318678  0.22965910    -0.79630
O781        O  0.52516903  0.17057974  0.14277735    -0.98710
Zr782      Zr  0.43829059  0.32258425  0.08433680     2.21500
Zr783      Zr  0.61505030  0.32262895  0.08211419     2.11130
O784        O  0.56901988  0.31960147  0.14720872    -2.47400
O785        O  0.48696472  0.32091800  0.14603811    -0.79420
O786        O  0.57568073  0.39340757  0.08341560    -0.71620
O787        O  0.48034932  0.25223519  0.08446332    -2.32570
O788        O  0.47967460  0.39244744  0.08529026    -2.28780
O789        O  0.57305890  0.25238991  0.08349812    -0.73380
H790        H  0.58100492  0.31656336  0.98874933     0.78620
H791        H  0.46045370  0.22623295  0.08472838     0.79710
H792        H  0.58462600  0.31377845  0.17492771     0.81930
H793        H  0.45994861  0.41846487  0.08587319     0.79540
H794        H  0.49387748  0.16070617  0.01779275     0.42580
H795        H  0.49762055  0.16399062  0.12538669     0.41550
H796        H  0.49945145  0.28385885  0.23744812     0.41220
H797        H  0.52795815  0.41532791  0.24308724     0.39160
H798        H  0.54837034  0.48149903  0.12923506     0.42290
H799        H  0.48915670  0.47976471  0.02012985     0.37070
H800        H  0.52270297  0.41767893  0.92599320     0.43190
H801        H  0.55220487  0.25006797  0.92557513     0.39610
H802        H  0.54808122  0.45684256  0.21631793     0.44530
H803        H  0.54121226  0.48528677  0.02594786     0.43250
H804        H  0.53349397  0.20148305  0.93755252     0.43380
H805        H  0.55013401  0.16327848  0.12178028     0.43740
C806        C  0.33490170  0.24369859  0.27522722     0.03290
C807        C  0.34411650  0.25831873  0.22949100    -0.12860
C808        C  0.37304373  0.23305863  0.20052066     0.00790
C809        C  0.38287071  0.18841825  0.21101861    -0.11380
C810        C  0.37442013  0.17110574  0.25365637     0.03280
C811        C  0.34637403  0.19650359  0.28412635    -0.10800
H812        H  0.33263004  0.29099117  0.21735316     0.08880
H813        H  0.40445819  0.16932909  0.18813120     0.06410
H814        H  0.33734726  0.18079121  0.31608536     0.06260
C815        C  0.38880978  0.18353156  0.91242889     0.03290
C816        C  0.38309066  0.19641976  0.95653664    -0.12860
C817        C  0.37272159  0.24110504  0.96497862     0.00790
C818        C  0.34886382  0.26649098  0.93137347    -0.11380
C819        C  0.34755142  0.25235944  0.88439989     0.03280
C820        C  0.36653020  0.20791820  0.87709797    -0.10800
H821        H  0.39976463  0.17669370  0.98294439     0.08880
H822        H  0.33425483  0.29834378  0.94189453     0.06410
H823        H  0.36433731  0.19128301  0.84485351     0.06260
C824        C  0.68338496  0.23514254  0.97077966     0.03290
C825        C  0.67322847  0.19088188  0.96086058    -0.12860
C826        C  0.67073965  0.17925624  0.91624614     0.00790
C827        C  0.69573295  0.20376310  0.88329490    -0.11380
C828        C  0.71382903  0.24790279  0.89269336     0.03280
C829        C  0.70973827  0.26115326  0.93949655    -0.10800
H830        H  0.65452633  0.17074653  0.98567908     0.08880
H831        H  0.70066011  0.18730357  0.85127080     0.06410
H832        H  0.72369589  0.29283963  0.95125885     0.06260
O833        O  0.61485931  0.96221253  0.77235648    -0.75130
O834        O  0.57606597  0.90388192  0.80523482    -0.54040
C835        C  0.60767425  0.91907985  0.78009128     0.78600
O836        O  0.63877420  0.10712885  0.91930233    -0.59730
O837        O  0.59680220  0.16476673  0.88939272    -0.52760
C838        C  0.63350005  0.14844958  0.90638964     0.70610
O839        O  0.64328636  0.97575617  0.89521268    -0.74290
O840        O  0.59601994  0.91655009  0.88306170    -0.54850
C841        C  0.63571667  0.93339186  0.88914749     0.76620
O842        O  0.61407768  0.12361245  0.77236360    -0.59430
O843        O  0.57881692  0.17918282  0.81274995    -0.52550
C844        C  0.60862582  0.16587016  0.78457997     0.73210
Zr845      Zr  0.59084155  0.04259563  0.78043381     2.54710
O846        O  0.66961714  0.04321071  0.75869216    -0.80000
O847        O  0.57396030  0.04417961  0.69986231    -0.93410
Zr848      Zr  0.59448854  0.03827854  0.91702862     2.64680
O849        O  0.66177692  0.02731086  0.96301748    -0.98370
O850        O  0.57220944  0.03364190  0.99652897    -0.80430
O851        O  0.59243271  0.99933010  0.84750320    -0.83790
O852        O  0.59410967  0.08166474  0.84923775    -2.18500
O853        O  0.44393211  0.12455398  0.77180771    -0.67180
O854        O  0.48293534  0.17864883  0.81115552    -0.51740
C855        C  0.45282609  0.16664509  0.78299574     0.71590
O856        O  0.41487473  0.97425387  0.89847699    -0.60090
O857        O  0.46097415  0.91530094  0.88037192    -0.52060
C858        C  0.42158690  0.93208821  0.88866807     0.73400
O859        O  0.42116786  0.11061734  0.92065188    -0.71480
O860        O  0.46379324  0.16706241  0.88861569    -0.50160
C861        C  0.42669121  0.15169442  0.90594170     0.74780
O862        O  0.44230438  0.95997898  0.76958822    -0.66810
O863        O  0.48334828  0.90434722  0.80530996    -0.54010
C864        C  0.45238017  0.91731766  0.77859587     0.73160
Zr865      Zr  0.46212636  0.04215660  0.78489138     2.77540
O866        O  0.38179926  0.04549864  0.80280008    -0.97560
O867        O  0.46941432  0.05059762  0.70367372    -0.78380
Zr868      Zr  0.46340857  0.03873749  0.91950419     2.70070
O869        O  0.39430397  0.03784432  0.96418954    -0.79630
O870        O  0.48059612  0.02482022  0.99901795    -0.98710
Zr871      Zr  0.52902776  0.95202923  0.84996903     2.21500
Zr872      Zr  0.53000484  0.12951932  0.85470666     2.11130
O873        O  0.46583932  0.08223212  0.85217099    -2.47400
O874        O  0.46536251  0.99871521  0.85110991    -0.79420
O875        O  0.52680846  0.08907074  0.78423272    -0.71620
O876        O  0.52905398  0.99049874  0.92120276    -2.32570
O877        O  0.52679706  0.99598819  0.78105945    -2.28780
O878        O  0.52936464  0.08635881  0.92363944    -0.73380
H879        H  0.62256078  0.09639804  0.84507718     0.78620
H880        H  0.52945375  0.96935811  0.94645782     0.79710
H881        H  0.43847917  0.09854544  0.84738181     0.81930
H882        H  0.52646620  0.97680200  0.75454287     0.79540
H883        H  0.59352567  0.01253945  0.01127466     0.42580
H884        H  0.47086136  0.05283934  0.01483706     0.41550
H885        H  0.36966685  0.03895677  0.94177838     0.41220
H886        H  0.37954110  0.03788825  0.83547824     0.39160
H887        H  0.48411454  0.08061563  0.69950752     0.42290
H888        H  0.58269985  0.01349930  0.68923142     0.37070
H889        H  0.68583735  0.03641806  0.78716597     0.43190
H890        H  0.68738662  0.03497327  0.94284431     0.39610
H891        H  0.37341814  0.07811643  0.80085515     0.44530
H892        H  0.59671008  0.06495552  0.68656887     0.43250
H893        H  0.66139053  0.05208552  0.98568432     0.43380
H894        H  0.45899046  0.00113266  0.00893909     0.43740
C895        C  0.66041205  0.38630122  0.93799896     0.03290
C896        C  0.67207001  0.43098907  0.93353496    -0.12860
C897        C  0.71539793  0.43952675  0.92148208     0.00790
C898        C  0.73832244  0.40840200  0.89310517    -0.11380
C899        C  0.72315965  0.36210434  0.88904630     0.03280
C900        C  0.68102344  0.35301259  0.91049322    -0.10800
H901        H  0.65413770  0.45636645  0.95346180     0.08880
H902        H  0.76944899  0.41972794  0.87807095     0.06410
H903        H  0.66393210  0.32097954  0.90705120     0.06260
C904        C  0.82735853  0.35299035  0.76361565     0.03290
C905        C  0.84222177  0.39895411  0.77216701    -0.12860
C906        C  0.87268636  0.42163810  0.74204424     0.00790
C907        C  0.87831538  0.40525189  0.69908547    -0.11380
C908        C  0.86629618  0.36102217  0.68955382     0.03280
C909        C  0.83612456  0.33725944  0.71859104    -0.10800
H910        H  0.83411546  0.41552582  0.80371729     0.08880
H911        H  0.90103968  0.42315752  0.67616392     0.06410
H912        H  0.82425657  0.30431845  0.70780548     0.06260
C913        C  0.80632744  0.32091799  0.80133564     0.02450
C914        C  0.79537930  0.33742112  0.84617335     0.02450
C915        C  0.75234072  0.32472633  0.86557296     0.02450
C916        C  0.73529305  0.27944291  0.85493106     0.02450
C917        C  0.74802989  0.26148086  0.81054566     0.02450
C918        C  0.79185412  0.27466585  0.79226623     0.02450
C919        C  0.64050162  0.19915228  0.76441981     0.03290
C920        C  0.66696943  0.23002310  0.79034195    -0.12860
C921        C  0.71326608  0.23827978  0.77867831     0.00790
C922        C  0.72677832  0.22141777  0.73559669    -0.11380
C923        C  0.70061981  0.18928583  0.71295114     0.03280
C924        C  0.65598552  0.18535231  0.72260687    -0.10800
H925        H  0.65281909  0.24338496  0.82128808     0.08880
H926        H  0.75865296  0.22988737  0.72055256     0.06410
H927        H  0.63608129  0.16190878  0.70250181     0.06260
O928        O  0.72831258  0.93223043  0.64120952    -0.75130
O929        O  0.72007083  0.97826320  0.70102506    -0.54040
C930        C  0.71807067  0.93843685  0.68223394     0.78600
O931        O  0.84644264  0.95862054  0.50200197    -0.59730
O932        O  0.80833802  0.99781835  0.44698993    -0.52760
C933        C  0.83496102  0.96638585  0.45964970     0.70610
O934        O  0.83423197  0.94982692  0.66486449    -0.74290
O935        O  0.80077278  0.99104182  0.72134090    -0.54850
C936        C  0.82279602  0.95653166  0.70711684     0.76620
O937        O  0.70133946  0.93604380  0.51736847    -0.59430
O938        O  0.73581356  0.97653911  0.46111753    -0.52550
C939        C  0.71766436  0.93969123  0.47766064     0.73210
Zr940      Zr  0.70087908  0.98157571  0.58316556     2.54710
O941        O  0.65307042  0.91423085  0.58985006    -0.80000
O942        O  0.62200222  0.00065873  0.59448535    -0.93410
Zr943      Zr  0.83622002  0.97944551  0.58510802     2.64680
O944        O  0.85072974  0.89801194  0.58494249    -0.98370
O945        O  0.91674739  0.99077777  0.59141929    -0.80430
O946        O  0.76780799  0.98209816  0.62462010    -0.83790
O947        O  0.76994007  0.98059975  0.54391917    -2.18500
O948        O  0.70569508  0.15835274  0.51633062    -0.67180
O949        O  0.73607530  0.11487541  0.46022913    -0.51740
C950        C  0.72000670  0.15279936  0.47597076     0.71590
O951        O  0.83580807  0.13619200  0.66739122    -0.60090
O952        O  0.80215970  0.09379616  0.72334262    -0.52060
C953        C  0.82463899  0.12826630  0.70973382     0.73400
O954        O  0.84893268  0.13047247  0.50356102    -0.71480
O955        O  0.81091385  0.09284800  0.44782988    -0.50160
C956        C  0.83787559  0.12352959  0.46100989     0.74780
O957        O  0.72634110  0.16091442  0.64452387    -0.66810
O958        O  0.72232369  0.11144437  0.70321871    -0.54010
C959        C  0.71920402  0.15221990  0.68607868     0.73160
Zr960      Zr  0.70307478  0.11270118  0.58363824     2.77540
O961        O  0.65516636  0.17990628  0.59093838    -0.97560
O962        O  0.62349500  0.09648198  0.59343195    -0.78380
Zr963      Zr  0.83790828  0.10907208  0.58659723     2.70070
O964        O  0.86070605  0.18855655  0.58435011    -0.79630
O965        O  0.91671600  0.09066486  0.59587642    -0.98710
Zr966      Zr  0.76390820  0.04468139  0.67315338     2.21500
Zr967      Zr  0.76830228  0.04595832  0.49677176     2.11130
O968        O  0.77206906  0.11104411  0.54423242    -2.47400
O969        O  0.76945145  0.10968378  0.62643960    -0.79420
O970        O  0.69801702  0.04748934  0.53491953    -0.71620
O971        O  0.83535768  0.04359366  0.63334272    -2.32570
O972        O  0.69633406  0.04667510  0.63095910    -2.28780
O973        O  0.83796605  0.04497065  0.53856872    -0.73380
H974        H  0.77485035  0.95152905  0.53017691     0.78620
H975        H  0.86013769  0.04290999  0.65435586     0.79710
H976        H  0.77754591  0.13984806  0.52978878     0.81930
H977        H  0.67032307  0.04695720  0.65059548     0.79540
H978        H  0.92283816  0.98623721  0.62410785     0.42580
H979        H  0.93078949  0.10176030  0.56749670     0.41550
H980        H  0.83223676  0.20582923  0.58644697     0.41220
H981        H  0.67537890  0.20643661  0.58688694     0.39160
H982        H  0.61198726  0.09317923  0.56217180     0.42290
H983        H  0.61178349  0.98205434  0.62065433     0.37070
H984        H  0.67354330  0.88768553  0.58823393     0.43190
H985        H  0.83697173  0.88662214  0.55670049     0.39610
H986        H  0.63585749  0.18041112  0.56369413     0.44530
H987        H  0.60621976  0.98786430  0.56796464     0.43250
H988        H  0.88341743  0.89624498  0.57951606     0.43380
H989        H  0.92697856  0.11193476  0.61958789     0.43740
C990        C  0.84308187  0.22651537  0.38348271     0.03290
C991        C  0.83196027  0.17962041  0.39377187    -0.12860
C992        C  0.85760781  0.15395835  0.42596824     0.00790
C993        C  0.89929304  0.16891405  0.43762537    -0.11380
C994        C  0.90751518  0.21443640  0.43424648     0.03280
C995        C  0.88496314  0.24120715  0.40167719    -0.10800
H996        H  0.80152119  0.16453223  0.38106996     0.08880
H997        H  0.91929756  0.14860626  0.46106367     0.06410
H998        H  0.89885869  0.27419460  0.39375303     0.06260
C999        C  0.89526661  0.21792148  0.73172434     0.03290
C1000       C  0.86899603  0.24994044  0.75573644    -0.12860
C1001       C  0.82546144  0.23817761  0.77304418     0.00790
C1002       C  0.81404672  0.19071880  0.76880260    -0.11380
C1003       C  0.84188953  0.16046160  0.74381246     0.03280
C1004       C  0.88546578  0.17248821  0.73495393    -0.10800
H1005       H  0.88299281  0.28342898  0.75973040     0.08880
H1006       H  0.78238960  0.17772722  0.78114598     0.06410
H1007       H  0.90682238  0.14834113  0.71704934     0.06260
C1008       C  0.35448271  0.24483500  0.76730752     0.03290
C1009       C  0.39844841  0.23387325  0.78339811    -0.12860
C1010       C  0.42644971  0.20248515  0.75999649     0.00790
C1011       C  0.41816289  0.19240619  0.71541002    -0.11380
C1012       C  0.37615038  0.19931249  0.69814022     0.03280
C1013       C  0.34646054  0.23039708  0.72100803    -0.10800
H1014       H  0.40985803  0.24624752  0.81568306     0.08880
H1015       H  0.44098918  0.16960809  0.69770959     0.06410
H1016       H  0.31579724  0.23969349  0.70400219     0.06260
C1017       C  0.32864797  0.28451325  0.84503488     0.02450
C1018       C  0.31257220  0.33007098  0.85619551     0.02450
C1019       C  0.26895422  0.34377165  0.83883468     0.02450
C1020       C  0.25679055  0.32826493  0.79345306     0.02450
C1021       C  0.27394381  0.28315816  0.78080974     0.02450
C1022       C  0.31791705  0.26874373  0.79890780     0.02450
O1023       O  0.26170996  0.98603719  0.46995300    -0.75130
O1024       O  0.25786597  0.92188577  0.51100921    -0.54040
C1025       C  0.25525814  0.94355884  0.47255387     0.78600
O1026       O  0.36599771  0.12453680  0.48978051    -0.59730
O1027       O  0.33020023  0.17994232  0.53006805    -0.52760
C1028       C  0.35414090  0.16692792  0.49642255     0.70610
O1029       O  0.36299381  0.95976463  0.48910646    -0.74290
O1030       O  0.33410726  0.90004642  0.52952534    -0.54850
C1031       C  0.35455392  0.91630187  0.49521671     0.76620
O1032       O  0.21929109  0.10511916  0.48087329    -0.59430
O1033       O  0.25499470  0.16322510  0.51675001    -0.52550
C1034       C  0.23391143  0.14558478  0.48264955     0.73210
Zr1035     Zr  0.22736628  0.03753977  0.52243233     2.54710
O1036       O  0.17798124  0.03496818  0.45671714    -0.80000
O1037       O  0.15119656  0.01430773  0.54283181    -0.93410
Zr1038     Zr  0.36230689  0.04204013  0.51281389     2.64680
O1039       O  0.36790744  0.04276572  0.43050078    -0.98370
O1040       O  0.44353062  0.04170633  0.51568337    -0.80430
O1041       O  0.29640624  0.00044359  0.51951807    -0.83790
O1042       O  0.29395954  0.08074751  0.51851490    -2.18500
O1043       O  0.23439246  0.10140864  0.69584444    -0.67180
O1044       O  0.25834633  0.16102764  0.65195188    -0.51740
C1045       C  0.24381896  0.14315521  0.68975788     0.71590
O1046       O  0.37356256  0.95696578  0.66433171    -0.60090
O1047       O  0.33986979  0.89963167  0.62499139    -0.52060
C1048       C  0.36338520  0.91400117  0.65772693     0.73400
O1049       O  0.37706148  0.12194023  0.66953003    -0.71360
O1050       O  0.33497165  0.17655565  0.63324806    -0.50160
C1051       C  0.36201098  0.16398792  0.66443027     0.74780
O1052       O  0.27213215  0.97707019  0.69433011    -0.66810
O1053       O  0.26122606  0.91770360  0.64836107    -0.54010
C1054       C  0.26196644  0.93572935  0.68837278     0.73160
Zr1055     Zr  0.23594110  0.03528592  0.65066072     2.77540
O1056       O  0.19399498  0.02322907  0.72111350    -0.97560
O1057       O  0.15668523  0.01852711  0.63989563    -0.78380
Zr1058     Zr  0.37038954  0.03997588  0.64061536     2.70070
O1059       O  0.38769243  0.02824420  0.71916366    -0.79630
O1060       O  0.44734053  0.03928786  0.61231230    -0.98710
Zr1061     Zr  0.29765319  0.94948985  0.57979120     2.21500
Zr1062     Zr  0.29413636  0.12872332  0.58279170     2.11130
O1063       O  0.30214918  0.07918776  0.64596394    -2.47400
O1064       O  0.30436217  0.99718193  0.64238983    -0.79420
O1065       O  0.22606536  0.08588039  0.58736112    -0.71620
O1066       O  0.36689072  0.99290616  0.57624625    -2.32570
O1067       O  0.22767779  0.98746406  0.58611729    -2.28780
O1068       O  0.36531228  0.08931463  0.57745553    -0.73380
H1069       H  0.29523968  0.09527332  0.48937463     0.78620
H1070       H  0.39267294  0.97301445  0.57442212     0.79710
H1071       H  0.30659717  0.09366618  0.67458619     0.81930
H1072       H  0.20308869  0.96607109  0.58794049     0.79540
H1073       H  0.45050518  0.01183133  0.52965820     0.42580
H1074       H  0.46105979  0.06849619  0.62150263     0.41550
H1075       H  0.36162187  0.01046674  0.73042942     0.41220
H1076       H  0.21567018  0.02878971  0.74583015     0.39160
H1077       H  0.14238841  0.04881332  0.63636381     0.42290
H1078       H  0.14416045  0.98767287  0.52368621     0.37070
H1079       H  0.19808107  0.03351353  0.42992543     0.43190
H1080       H  0.34946769  0.01653132  0.42082863     0.39610
H1081       H  0.17215384  0.04857958  0.72331767     0.44530
H1082       H  0.13142077  0.03904722  0.53169499     0.43250
H1083       H  0.35012312  0.06963908  0.42099119     0.43380
H1084       H  0.46322007  0.01490237  0.62912943     0.43740
O1085       O  0.94664457  0.34630640  0.49294223    -0.75130
O1086       O  0.89072575  0.30916504  0.53142166    -0.54040
C1087       C  0.90480909  0.33384819  0.49851402     0.78600
O1088       O  0.09469402  0.21319226  0.47283716    -0.59730
O1089       O  0.14981064  0.24629741  0.51448500    -0.52760
C1090       C  0.13399490  0.22922414  0.47725053     0.70610
O1091       O  0.97273241  0.23919033  0.46806350    -0.74290
O1092       O  0.91236428  0.23193956  0.51344403    -0.54850
C1093       C  0.93120896  0.23201863  0.47354137     0.76620
O1094       O  0.10743322  0.35895768  0.49992796    -0.59430
O1095       O  0.16276610  0.31983880  0.53684299    -0.52550
C1096       C  0.14955901  0.34750252  0.50635320     0.73210
Zr1097     Zr  0.02567908  0.34789509  0.52195547     2.54710
O1098       O  0.02772096  0.36850310  0.44202210    -0.80000
O1099       O  0.01856699  0.42913626  0.53657974    -0.93410
Zr1100     Zr  0.02910331  0.21031459  0.51845038     2.64680
O1101       O  0.02155023  0.16197814  0.45158688    -0.98370
O1102       O  0.01984257  0.12915693  0.53408982    -0.80430
O1103       O  0.98736400  0.27808626  0.52118458    -0.83790
O1104       O  0.06726963  0.28087992  0.51958602    -2.18500
O1105       O  0.10437561  0.36034448  0.67210385    -0.67180
O1106       O  0.15900050  0.32172067  0.63256734    -0.51740
C1107       C  0.14645539  0.34936387  0.66322879     0.71590
O1108       O  0.96634652  0.22072612  0.69875285    -0.60090
O1109       O  0.90673914  0.23729914  0.65361477    -0.52060
C1110       C  0.92448895  0.22840555  0.69282097     0.73400
O1111       O  0.09858085  0.21042328  0.69424693    -0.71480
O1112       O  0.15260179  0.24527444  0.65135042    -0.50160
C1113       C  0.13799130  0.22754986  0.68905566     0.74780
O1114       O  0.94192493  0.34706657  0.67121887    -0.66810
O1115       O  0.88790310  0.31258121  0.62898277    -0.54010
C1116       C  0.90030043  0.33793248  0.66159250     0.73160
Zr1117     Zr  0.02317520  0.34017954  0.65276495     2.77540
O1118       O  0.01965732  0.31288267  0.73140601    -0.97560
O1119       O  0.00038213  0.41759509  0.66780866    -0.78380
Zr1120     Zr  0.03011342  0.20530444  0.64945871     2.70070
O1121       O  0.02804944  0.15763028  0.71754845    -0.79630
O1122       O  0.02750873  0.12516533  0.62839401    -0.98710
Zr1123     Zr  0.93911779  0.27071057  0.58328349     2.21500
Zr1124     Zr  0.11385152  0.27736545  0.58414652     2.11130
O1125       O  0.06752824  0.27598603  0.64911018    -2.47400
O1126       O  0.98569160  0.27105975  0.64685893    -0.79420
O1127       O  0.07027615  0.34697402  0.58779234    -0.71620
O1128       O  0.98211653  0.20210993  0.58398702    -2.32570
O1129       O  0.97880879  0.34246859  0.58630030    -2.28780
O1130       O  0.07753398  0.20507412  0.58321693    -0.73380
H1131       H  0.08084981  0.28680033  0.49066005     0.78620
H1132       H  0.96311647  0.17553439  0.58340254     0.79710
H1133       H  0.08282730  0.28284582  0.67666325     0.81930
H1134       H  0.95799879  0.36771266  0.58672939     0.79540
H1135       H  0.99055590  0.12093998  0.52075111     0.42580
H1136       H  0.05594571  0.11211524  0.63988651     0.41550
H1137       H  0.03095089  0.17890013  0.74333825     0.41220
H1138       H  0.98756448  0.31460665  0.74007356     0.39160
H1139       H  0.98306491  0.42711617  0.64079413     0.42290
H1140       H  0.03122500  0.43333842  0.56724730     0.37070
H1141       H  0.02447882  0.33914584  0.42596394     0.43190
H1142       H  0.02555209  0.18250845  0.42509623     0.39610
H1143       H  0.02619278  0.27982865  0.73074613     0.44530
H1144       H  0.98592414  0.43401854  0.54052082     0.43250
H1145       H  0.04842143  0.14210259  0.45111528     0.43380
H1146       H  0.00386976  0.11133228  0.64772427     0.43740
C1147       C  0.22144347  0.17206480  0.44319604     0.03290
C1148       C  0.17641073  0.17668144  0.43844910    -0.12860
C1149       C  0.16280150  0.22073213  0.43841097     0.00790
C1150       C  0.18865101  0.25371718  0.41518188    -0.11380
C1151       C  0.23471086  0.24451053  0.40432838     0.03280
C1152       C  0.24993155  0.20068932  0.41846427    -0.10800
H1153       H  0.15449014  0.15101270  0.45366520     0.08880
H1154       H  0.17208649  0.28505419  0.40614757     0.06410
H1155       H  0.28173340  0.18641305  0.40930155     0.06260
C1156       C  0.23159679  0.36065643  0.75829656     0.03290
C1157       C  0.22019789  0.40735908  0.76809998    -0.12860
C1158       C  0.18827259  0.43175851  0.74115072     0.00790
C1159       C  0.17665506  0.41550541  0.69925738    -0.11380
C1160       C  0.18287843  0.37049213  0.69019349     0.03280
C1161       C  0.21618660  0.34567104  0.71465706    -0.10800
H1162       H  0.23185167  0.42311466  0.79887941     0.08880
H1163       H  0.15317330  0.43466769  0.67839694     0.06410
H1164       H  0.22698486  0.31364503  0.70075215     0.06260
C1165       C  0.16919442  0.22046482  0.72703527     0.03290
C1166       C  0.18392243  0.17669707  0.72763178    -0.12860
C1167       C  0.22924295  0.17145626  0.72700213     0.00790
C1168       C  0.25665629  0.20187412  0.75047213    -0.11380
C1169       C  0.24157611  0.24672372  0.76033654     0.03280
C1170       C  0.19505139  0.25458765  0.74919869    -0.10800
H1171       H  0.16320299  0.15044153  0.71215875     0.08880
H1172       H  0.28870460  0.18904497  0.76091108     0.06410
H1173       H  0.17825633  0.28597727  0.75736491     0.06260
C1174       C  0.72951176  0.23320252  0.25876464     0.03290
C1175       C  0.71636616  0.18625003  0.26777615    -0.12860
C1176       C  0.68408963  0.16298094  0.24011900     0.00790
C1177       C  0.67396935  0.18098079  0.19834297    -0.11380
C1178       C  0.68429813  0.22556694  0.18820112     0.03280
C1179       C  0.71681443  0.24916130  0.21456580    -0.10800
H1180       H  0.72746593  0.16913544  0.29820633     0.08880
H1181       H  0.65020891  0.16314285  0.17691875     0.06410
H1182       H  0.72880667  0.28153049  0.20198056     0.06260
C1183       C  0.19560671  0.68711361  0.21922293     0.03290
C1184       C  0.15169620  0.69458400  0.23042541    -0.12860
C1185       C  0.14261433  0.70443818  0.27479457     0.00790
C1186       C  0.17527887  0.72922270  0.29997448    -0.11380
C1187       C  0.22200754  0.72988233  0.28659241     0.03280
C1188       C  0.23012476  0.70989709  0.24312327    -0.10800
H1189       H  0.12581207  0.67784957  0.21059224     0.08880
H1190       H  0.16432032  0.74472847  0.33117427     0.06410
H1191       H  0.26212331  0.71211882  0.22649178     0.06260
C1192       C  0.34464344  0.43515765  0.24152947     0.03290
C1193       C  0.38768331  0.42294062  0.23039988    -0.12860
C1194       C  0.39884572  0.37775303  0.23203702     0.00790
C1195       C  0.37516933  0.34768324  0.26095996    -0.11380
C1196       C  0.33180556  0.35945643  0.27809865     0.03280
C1197       C  0.31924316  0.40633575  0.27097755    -0.10800
H1198       H  0.40734942  0.44559523  0.20870639     0.08880
H1199       H  0.39013806  0.31496865  0.26771345     0.06410
H1200       H  0.28806385  0.41947137  0.28423524     0.06260
C1201       C  0.36874641  0.20052571  0.46089108     0.03290
C1202       C  0.40653681  0.18603728  0.43827506    -0.12860
C1203       C  0.40855244  0.19067871  0.39227282     0.00790
C1204       C  0.38425054  0.22493519  0.37041597    -0.11380
C1205       C  0.34446505  0.24180588  0.39026965     0.03280
C1206       C  0.33996418  0.23285566  0.43861209    -0.10800
H1207       H  0.42877541  0.16153110  0.45429078     0.08880
H1208       H  0.39495342  0.23505962  0.33701872     0.06410
H1209       H  0.31145889  0.24585162  0.45725066     0.06260
C1210       C  0.18378666  0.36797013  0.47570703     0.03290
C1211       C  0.17214519  0.41081731  0.46194983    -0.12860
C1212       C  0.17459115  0.42043335  0.41678241     0.00790
C1213       C  0.20559320  0.39792104  0.38871741    -0.11380
C1214       C  0.22372610  0.35501114  0.40196772     0.03280
C1215       C  0.21477757  0.34243639  0.44870410    -0.10800
H1216       H  0.14952196  0.43080670  0.48306790     0.08880
H1217       H  0.21238945  0.41280260  0.35595052     0.06410
H1218       H  0.22796027  0.31130746  0.46300471     0.06260
C1219       C  0.29980103  0.32332750  0.30053690     0.02450
C1220       C  0.25706982  0.33751073  0.32016225     0.02450
C1221       C  0.24785876  0.32320730  0.36670542     0.02450
C1222       C  0.26561030  0.27931849  0.38014179     0.02450
C1223       C  0.30750580  0.26425459  0.35990457     0.02450
C1224       C  0.31593985  0.27779265  0.31266778     0.02450
loop_ 
_geom_bond_atom_site_label_1 
_geom_bond_atom_site_label_2 
_geom_bond_distance 
_geom_bond_site_symmetry_2 
_ccdc_geom_bond_type 
C1            C2   1.429       .  A
C1            C6   1.372       .  A
C1          C586   1.485       .  S
C2            C3   1.442       .  A
C2            H7   1.080       .  S
C3            C4   1.429       .  A
C3           C28   1.575       .  S
C4            C5   1.415       .  A
C4            H8   1.078       .  S
C5            C6   1.372       .  A
C5          C485   1.471       .  S
C6            H9   1.088       .  S
C10          C11   1.420       .  A
C10          C15   1.377       .  A
C10         C117   1.480       .  S
C11          C12   1.431       .  A
C11          H16   1.079       .  S
C12          C13   1.443       .  A
C12          C30   1.577       .  S
C13          C14   1.428       .  A
C13          H17   1.080       .  S
C14          C15   1.374       .  A
C14         C218   1.492       .  S
C15          H18   1.088       .  S
C19          C20   1.397       .  A
C19          C24   1.362       .  A
C19         C930   1.446       .  S
C20          C21   1.414       .  A
C20          H25   1.077       .  S
C21          C22   1.443       .  A
C21          C32   1.551       .  S
C22          C23   1.424       .  A
C22          H26   1.080       .  S
C23          C24   1.375       .  A
C23         C835   1.481       .  S
C24          H27   1.089       .  S
C28          C29   1.454       .  A
C28          C33   1.452       .  A
C29          C30   1.455       .  A
C29          C88   1.549       .  S
C30          C31   1.453       .  A
C31          C32   1.457       .  A
C31          C70   1.575       .  S
C32          C33   1.441       .  A
C33         C301   1.552       .  S
C34          C35   1.410       .  A
C34          C39   1.360       .  A
C34         C746   1.458       .  S
C35          C36   1.429       .  A
C35          H40   1.077       .  S
C36          C37   1.438       .  A
C36        C1018   1.564       .  S
C37          C38   1.419       .  A
C37          H41   1.079       .  S
C38          C39   1.366       .  A
C38         C334   1.469       .  S
C39          H42   1.089       .  S
C43          C44   1.429       .  A
C43          C48   1.445       .  A
C43         C667   1.574       .  S
C44          C45   1.407       .  A
C44          H49   1.075       .  S
C45          C46   1.365       .  A
C45         C396   1.461       .  S
C46          C47   1.371       .  A
C46          H50   1.090       .  S
C47          C48   1.428       .  A
C47        C1087   1.484       .  S
C48          H51   1.079       .  S
C52          C53   1.397       .  A
C52          C57   1.357       .  A
C52         C690   1.449       .  S
C53          C54   1.419       .  A
C53          H58   1.074       .  S
C54          C55   1.443       .  A
C54         C318   1.561       .  S
C55          C56   1.430       .  A
C55          H59   1.081       .  S
C56          C57   1.368       .  A
C56        C1031   1.470       .  S
C57          H60   1.089       .  S
C61          C62   1.363       .  A
C61          C66   1.429       .  A
C61         C933   1.483       .  S
C62          C63   1.364       .  A
C62          H67   1.090       .  S
C63          C64   1.415       .  A
C63         C140   1.462       .  S
C64          C65   1.434       .  A
C64          H68   1.077       .  S
C65          C66   1.445       .  A
C65         C564   1.582       .  S
C66          H69   1.078       .  S
C70          C71   1.437       .  A
C70          C75   1.436       .  A
C71          C72   1.419       .  A
C71          H76   1.077       .  S
C72          C73   1.373       .  A
C72         C936   1.478       .  S
C73          C74   1.371       .  A
C73          H77   1.089       .  S
C74          C75   1.419       .  A
C74         C123   1.475       .  S
C75          H78   1.074       .  S
C79          C80   1.362       .  A
C79          C84   1.400       .  A
C79         C241   1.450       .  S
C80          C81   1.364       .  A
C80          H85   1.090       .  S
C81          C82   1.411       .  A
C81         C508   1.453       .  S
C82          C83   1.432       .  A
C82          H86   1.077       .  S
C83          C84   1.421       .  A
C83         C914   1.547       .  S
C84          H87   1.076       .  S
C88          C89   1.434       .  A
C88          C93   1.419       .  A
C89          C90   1.418       .  A
C89          H94   1.077       .  S
C90          C91   1.369       .  A
C90         C491   1.458       .  S
C91          C92   1.363       .  A
C91          H95   1.089       .  S
C92          C93   1.393       .  A
C92         C212   1.450       .  S
C93          H96   1.073       .  S
C97          C98   1.360       .  A
C97         C102   1.423       .  A
C97         C143   1.462       .  S
C98          C99   1.358       .  A
C98         H103   1.087       .  S
C99         C100   1.392       .  A
C99        C1025   1.443       .  S
C100        C101   1.419       .  A
C100        H104   1.073       .  S
C101        C102   1.440       .  A
C101        C319   1.556       .  S
C102        H105   1.076       .  S
C106        C107   1.365       .  A
C106        C111   1.432       .  A
C106        C120   1.472       .  S
C107        C108   1.364       .  A
C107        H112   1.089       .  S
C108        C109   1.390       .  A
C108       C1054   1.443       .  S
C109        C110   1.415       .  A
C109        H113   1.073       .  S
C110        C111   1.444       .  A
C110        C196   1.562       .  S
C111        H114   1.076       .  S
O115       Zr127   2.488   1_655  S
O115        C117   1.304       .  A
O116       Zr153   2.395       .  S
O116        C117   1.278       .  A
O118       Zr130   2.464       .  S
O118        C120   1.289       .  A
O119       Zr154   2.451       .  S
O119        C120   1.293       .  A
O121       Zr130   2.456   1_655  S
O121        C123   1.286       .  A
O122       Zr153   2.461       .  S
O122        C123   1.295       .  A
O124       Zr127   2.516       .  S
O124        C126   1.310       .  A
O125       Zr154   2.382       .  S
O125        C126   1.275       .  A
C126        C203   1.482       .  S
Zr127       O128   2.443       .  S
Zr127       O129   2.404       .  S
Zr127       O133   2.327   1_455  S
Zr127       O134   2.310       .  S
Zr127       O157   2.363       .  S
Zr127       O159   2.361   1_455  S
O128        H171   0.990   1_455  S
O129        H170   0.990       .  S
O129        H174   0.990   1_455  S
Zr130       O131   2.441       .  S
Zr130       O132   2.435       .  S
Zr130       O134   2.361       .  S
Zr130       O133   2.347   1_455  S
Zr130       O158   2.415   1_455  S
Zr130       O160   2.414       .  S
O131        H172   0.991       .  S
O131        H175   0.990       .  S
O132        H165   0.990       .  S
O133       Zr153   2.334       .  S
O134       Zr154   2.355       .  S
O134        H161   0.958       .  S
O135       Zr147   2.546       .  S
O135        C137   1.316       .  A
O136       Zr154   2.343       .  S
O136        C137   1.267       .  A
C137        C310   1.477       .  S
O138       Zr150   2.416   1_655  S
O138        C140   1.272       .  A
O139       Zr153   2.494       .  S
O139        C140   1.300       .  A
O141       Zr150   2.413       .  S
O141        C143   1.279       .  A
O142       Zr154   2.468       .  S
O142        C143   1.294       .  A
O144       Zr147   2.526   1_655  S
O144        C146   1.313       .  A
O145       Zr153   2.355       .  S
O145        C146   1.271       .  A
C146        C556   1.474       .  S
Zr147       O148   2.432       .  S
Zr147       O149   2.435       .  S
Zr147       O155   2.328       .  S
Zr147       O156   2.336   1_455  S
Zr147       O159   2.357   1_455  S
Zr147       O157   2.357       .  S
O148        H168   0.990       .  S
O148        H173   0.988       .  S
O149        H169   0.990       .  S
Zr150       O151   2.442       .  S
Zr150       O152   2.441       .  S
Zr150       O156   2.346   1_455  S
Zr150       O155   2.361       .  S
Zr150       O160   2.406       .  S
Zr150       O158   2.407   1_455  S
O151        H167   0.990       .  S
O152        H166   0.990       .  S
O152        H176   0.990   1_455  S
Zr153       O156   2.335       .  S
Zr153       O158   2.387       .  S
Zr153       O159   2.406       .  S
Zr154       O155   2.371       .  S
Zr154       O157   2.405       .  S
Zr154       O160   2.380       .  S
O155        H163   0.958       .  S
O158        H162   0.964       .  S
O159        H164   0.966       .  S
C177        C178   1.429       .  A
C177        C182   1.441       .  A
C177        C199   1.574       .  S
C178        C179   1.415       .  A
C178        H183   1.079       .  S
C179        C180   1.373       .  A
C179        C363   1.470       .  S
C180        C181   1.370       .  A
C180        H184   1.088       .  S
C181        C182   1.428       .  A
C181        C603   1.484       .  S
C182        H185   1.080       .  S
C186        C187   1.434       .  A
C186        C191   1.439       .  A
C186        C197   1.578       .  S
C187        C188   1.419       .  A
C187        H192   1.077       .  S
C188        C189   1.365       .  A
C188        C864   1.476       .  S
C189        C190   1.370       .  A
C189        H193   1.088       .  S
C190        C191   1.430       .  A
C190       C1048   1.474       .  S
C191        H194   1.081       .  S
C195        C196   1.461       .  A
C195        C200   1.467       .  A
C195        C201   1.586       .  S
C196        C197   1.465       .  A
C197        C198   1.446       .  A
C198        C199   1.454       .  A
C198        C292   1.567       .  S
C199        C200   1.462       .  A
C200        C283   1.566       .  S
C201        C202   1.435       .  A
C201        C206   1.443       .  A
C202        C203   1.423       .  A
C202        H207   1.077       .  S
C203        C204   1.369       .  A
C204        C205   1.373       .  A
C204        H208   1.087       .  S
C205        C206   1.433       .  A
C205        C215   1.488       .  S
C206        H209   1.080       .  S
O210       Zr222   2.402   1_655  S
O210        C212   1.267       .  A
O211       Zr248   2.475       .  S
O211        C212   1.298       .  A
O213       Zr225   2.530       .  S
O213        C215   1.313       .  A
O214       Zr249   2.376       .  S
O214        C215   1.275       .  A
O216       Zr225   2.529   1_655  S
O216        C218   1.311       .  A
O217       Zr248   2.383       .  S
O217        C218   1.277       .  A
O219       Zr222   2.397       .  S
O219        C221   1.276       .  A
O220       Zr249   2.471       .  S
O220        C221   1.297       .  A
C221        C281   1.460       .  S
Zr222       O223   2.441       .  S
Zr222       O224   2.433       .  S
Zr222       O228   2.347   1_455  S
Zr222       O229   2.355       .  S
Zr222       O252   2.401       .  S
Zr222       O254   2.394   1_455  S
O223        H266   0.990       .  S
O224        H265   0.989   1_455  S
O224        H269   0.990       .  S
Zr225       O226   2.399       .  S
Zr225       O227   2.434       .  S
Zr225       O229   2.350       .  S
Zr225       O228   2.330   1_455  S
Zr225       O253   2.356   1_455  S
Zr225       O255   2.351       .  S
O226        H267   0.990       .  S
O226        H270   0.990       .  S
O227        H260   0.990   1_455  S
O228       Zr248   2.335       .  S
O229       Zr249   2.370       .  S
O229        H256   0.959       .  S
O230       Zr242   2.394       .  S
O230        C232   1.276       .  A
O231       Zr249   2.482       .  S
O231        C232   1.297       .  A
C232        C272   1.463       .  S
O233       Zr245   2.558   1_655  S
O233        C235   1.319       .  A
O234       Zr248   2.365       .  S
O234        C235   1.275       .  A
C235        C906   1.490       .  S
O236       Zr245   2.515       .  S
O236        C238   1.309       .  A
O237       Zr249   2.376       .  S
O237        C238   1.274       .  A
C238       C1158   1.481       .  S
O239       Zr242   2.408   1_655  S
O239        C241   1.268       .  A
O240       Zr248   2.479       .  S
O240        C241   1.299       .  A
Zr242       O243   2.442       .  S
Zr242       O244   2.431       .  S
Zr242       O250   2.353       .  S
Zr242       O251   2.340   1_455  S
Zr242       O254   2.391   1_455  S
Zr242       O252   2.398       .  S
O243        H263   0.990       .  S
O243        H268   0.990       .  S
O244        H264   0.990       .  S
Zr245       O246   2.403       .  S
Zr245       O247   2.450       .  S
Zr245       O251   2.334   1_455  S
Zr245       O250   2.341       .  S
Zr245       O255   2.350       .  S
Zr245       O253   2.361   1_455  S
O246        H262   0.990       .  S
O247        H261   0.988       .  S
O247        H271   0.991       .  S
Zr248       O251   2.331       .  S
Zr248       O253   2.415       .  S
Zr248       O254   2.382       .  S
Zr249       O250   2.366       .  S
Zr249       O252   2.378       .  S
Zr249       O255   2.406       .  S
O250        H258   0.957       .  S
O253        H257   0.966       .  S
O254        H259   0.966       .  S
C272        C273   1.364       .  A
C272        C277   1.411       .  A
C273        C274   1.363       .  A
C273        H278   1.090       .  S
C274        C275   1.417       .  A
C274        C340   1.466       .  S
C275        C276   1.441       .  A
C275        H279   1.076       .  S
C276        C277   1.429       .  A
C276       C1019   1.569       .  S
C277        H280   1.071       .  S
C281        C282   1.407       .  A
C281        C286   1.365       .  A
C282        C283   1.426       .  A
C282        H287   1.071       .  S
C283        C284   1.439       .  A
C284        C285   1.420       .  A
C284        H288   1.075       .  S
C285        C286   1.366       .  A
C285        C357   1.469       .  S
C286        H289   1.090       .  S
C290        C291   1.401       .  A
C290        C295   1.367       .  A
C290        C609   1.457       .  S
C291        C292   1.422       .  A
C291        H296   1.074       .  S
C292        C293   1.444       .  A
C293        C294   1.426       .  A
C293        H297   1.077       .  S
C294        C295   1.368       .  A
C294        C858   1.477       .  S
C295        H298   1.090       .  S
C299        C300   1.397       .  A
C299        C304   1.362       .  A
C299        C580   1.446       .  S
C300        C301   1.418       .  A
C300        H305   1.075       .  S
C301        C302   1.438       .  A
C302        C303   1.416       .  A
C302        H306   1.076       .  S
C303        C304   1.364       .  A
C303        C841   1.462       .  S
C304        H307   1.089       .  S
C308        C309   1.444       .  A
C308        C313   1.430       .  A
C308        C320   1.572       .  S
C309        C310   1.424       .  A
C309        H314   1.078       .  S
C310        C311   1.357       .  A
C311        C312   1.363       .  A
C311        H315   1.089       .  S
C312        C313   1.412       .  A
C312        C416   1.454       .  S
C313        H316   1.073       .  S
C317        C318   1.446       .  A
C317        C322   1.465       .  A
C317        C642   1.578       .  S
C318        C319   1.446       .  A
C319        C320   1.447       .  A
C320        C321   1.471       .  A
C321        C322   1.487       .  A
C321       C1187   1.584       .  S
C322        C323   1.589       .  S
C323        C324   1.429       .  A
C323        C328   1.452       .  A
C324        C325   1.419       .  A
C324        H329   1.077       .  S
C325        C326   1.379       .  A
C325        C354   1.485       .  S
C326        C327   1.381       .  A
C326        H330   1.087       .  S
C327        C328   1.436       .  A
C327        C606   1.510       .  S
C328        H331   1.079       .  S
O332       Zr344   2.507       .  S
O332        C334   1.308   1_554  A
O333       Zr370   2.349       .  S
O333        C334   1.269       .  A
O335       Zr347   2.409       .  S
O335        C337   1.277       .  A
O336       Zr371   2.474       .  S
O336        C337   1.297       .  A
C337        C456   1.461       .  S
O338       Zr347   2.434       .  S
O338        C340   1.279   1_554  A
O339       Zr370   2.469       .  S
O339        C340   1.298       .  A
O341       Zr344   2.509       .  S
O341        C343   1.308       .  A
O342       Zr371   2.382       .  S
O342        C343   1.275       .  A
C343       C1192   1.482       .  S
Zr344       O345   2.434       .  S
Zr344       O346   2.426       .  S
Zr344       O350   2.337       .  S
Zr344       O351   2.336       .  S
Zr344       O374   2.361       .  S
Zr344       O376   2.350       .  S
O345        H388   0.990       .  S
O346        H387   0.988       .  S
O346        H391   0.989       .  S
Zr347       O348   2.444       .  S
Zr347       O349   2.438       .  S
Zr347       O351   2.369       .  S
Zr347       O350   2.347       .  S
Zr347       O375   2.401       .  S
Zr347       O377   2.408       .  S
O348        H389   0.990       .  S
O348        H392   0.991       .  S
O349        H382   0.990       .  S
O350       Zr370   2.343   1_554  S
O351       Zr371   2.381       .  S
O351        H378   0.959       .  S
O352       Zr364   2.494       .  S
O352        C354   1.304       .  A
O353       Zr371   2.409       .  S
O353        C354   1.281       .  A
O355       Zr367   2.449       .  S
O355        C357   1.284   1_554  A
O356       Zr370   2.459       .  S
O356        C357   1.295       .  A
O358       Zr367   2.431       .  S
O358        C360   1.284       .  A
O359       Zr371   2.470       .  S
O359        C360   1.296       .  A
C360       C1183   1.469       .  S
O361       Zr364   2.488   1_556  S
O361        C363   1.304       .  A
O362       Zr370   2.372       .  S
O362        C363   1.274       .  A
Zr364       O365   2.442       .  S
Zr364       O366   2.389       .  S
Zr364       O372   2.312       .  S
Zr364       O373   2.317       .  S
Zr364       O376   2.354       .  S
Zr364       O374   2.367       .  S
O365        H385   0.988       .  S
O365        H390   0.990       .  S
O366        H386   0.991       .  S
Zr367       O368   2.440       .  S
Zr367       O369   2.437       .  S
Zr367       O373   2.335       .  S
Zr367       O372   2.363       .  S
Zr367       O377   2.407       .  S
Zr367       O375   2.405       .  S
O368        H384   0.991       .  S
O369        H383   0.990       .  S
O369        H393   0.990       .  S
Zr370       O373   2.327   1_556  S
Zr370       O375   2.384   1_556  S
Zr370       O376   2.403   1_556  S
Zr371       O372   2.360       .  S
Zr371       O374   2.407       .  S
Zr371       O377   2.395       .  S
O372        H380   0.957       .  S
O375        H379   0.966       .  S
O376        H381   0.966       .  S
O394       Zr406   2.412       .  S
O394        C396   1.273       .  A
O395       Zr432   2.475   1_655  S
O395        C396   1.298       .  A
O397       Zr409   2.529       .  S
O397        C399   1.312       .  A
O398       Zr433   2.382   1_655  S
O398        C399   1.275       .  A
C399        C474   1.486       .  S
O400       Zr409   2.516       .  S
O400        C402   1.311       .  A
O401       Zr432   2.349   1_655  S
O401        C402   1.270       .  A
C402        C467   1.471       .  S
O403       Zr406   2.391       .  S
O403        C405   1.274       .  A
O404       Zr433   2.489   1_655  S
O404        C405   1.300       .  A
C405        C554   1.459       .  S
Zr406       O407   2.442       .  S
Zr406       O408   2.436       .  S
Zr406       O412   2.352       .  S
Zr406       O413   2.360       .  S
Zr406       O436   2.406   1_655  S
Zr406       O438   2.390   1_655  S
O407        H450   0.991       .  S
O408        H449   0.990       .  S
O408        H453   0.990       .  S
Zr409       O410   2.430       .  S
Zr409       O411   2.435       .  S
Zr409       O413   2.336       .  S
Zr409       O412   2.348       .  S
Zr409       O437   2.358   1_655  S
Zr409       O439   2.368   1_655  S
O410        H451   0.990       .  S
O410        H454   0.989       .  S
O411        H444   0.990       .  S
O412       Zr432   2.350   1_655  S
O413       Zr433   2.381   1_655  S
O413        H440   0.957       .  S
O414       Zr426   2.365       .  S
O414        C416   1.270       .  A
O415       Zr433   2.493       .  S
O415        C416   1.298       .  A
O417       Zr429   2.513       .  S
O417        C419   1.310       .  A
O418       Zr432   2.357       .  S
O418        C419   1.272       .  A
C419        C458   1.470       .  S
O420       Zr429   2.524       .  S
O420        C422   1.311       .  A
O421       Zr433   2.392       .  S
O421        C422   1.278       .  A
C422       C1185   1.488       .  S
O423       Zr426   2.398       .  S
O423        C425   1.265       .  A
O424       Zr432   2.493       .  S
O424        C425   1.300       .  A
C425       C1212   1.448       .  S
Zr426       O427   2.445       .  S
Zr426       O428   2.436       .  S
Zr426       O434   2.362       .  S
Zr426       O435   2.338       .  S
Zr426       O438   2.388       .  S
Zr426       O436   2.397       .  S
O427        H447   0.990       .  S
O427        H452   0.991       .  S
O428        H448   0.990       .  S
Zr429       O430   2.434       .  S
Zr429       O431   2.435       .  S
Zr429       O435   2.333       .  S
Zr429       O434   2.338       .  S
Zr429       O439   2.363       .  S
Zr429       O437   2.361       .  S
O430        H446   0.990       .  S
O431        H445   0.990       .  S
O431        H455   0.990       .  S
Zr432       O435   2.323       .  S
Zr432       O437   2.427       .  S
Zr432       O438   2.369       .  S
Zr433       O434   2.372       .  S
Zr433       O436   2.386       .  S
Zr433       O439   2.424       .  S
O434        H442   0.958       .  S
O437        H441   0.966       .  S
O438        H443   0.965       .  S
C456        C457   1.363       .  A
C456        C461   1.411       .  A
C457        C458   1.368       .  A
C457        H462   1.089       .  S
C458        C459   1.421       .  A
C459        C460   1.437       .  A
C459        H463   1.079       .  S
C460        C461   1.430       .  A
C460       C1220   1.567       .  S
C461        H464   1.073       .  S
C465        C466   1.361       .  A
C465        C470   1.412       .  A
C465        C511   1.458       .  S
C466        C467   1.365       .  A
C466        H471   1.090       .  S
C467        C468   1.422       .  A
C468        C469   1.440       .  A
C468        H472   1.079       .  S
C469        C470   1.430       .  A
C469        C668   1.567       .  S
C470        H473   1.075       .  S
C474        C475   1.364       .  A
C474        C479   1.428       .  A
C475        C476   1.364       .  A
C475        H480   1.089       .  S
C476        C477   1.417       .  A
C476        C488   1.461       .  S
C477        C478   1.430       .  A
C477        H481   1.075       .  S
C478        C479   1.448       .  A
C478        C566   1.582       .  S
C479        H482   1.078       .  S
O483       Zr495   2.491   1_556  S
O483        C485   1.305       .  A
O484       Zr521   2.376       .  S
O484        C485   1.275       .  A
O486       Zr498   2.409       .  S
O486        C488   1.278       .  A
O487       Zr522   2.488       .  S
O487        C488   1.300       .  A
O489       Zr498   2.442       .  S
O489        C491   1.281   1_554  A
O490       Zr521   2.439       .  S
O490        C491   1.292       .  A
O492       Zr495   2.495       .  S
O492        C494   1.305       .  A
O493       Zr522   2.429       .  S
O493        C494   1.285       .  A
C494        C571   1.492       .  S
Zr495       O496   2.441       .  S
Zr495       O497   2.400       .  S
Zr495       O501   2.324       .  S
Zr495       O502   2.310       .  S
Zr495       O525   2.371       .  S
Zr495       O527   2.356       .  S
O496        H539   0.990       .  S
O497        H538   0.990       .  S
O497        H542   0.990       .  S
Zr498       O499   2.443       .  S
Zr498       O500   2.432       .  S
Zr498       O502   2.361       .  S
Zr498       O501   2.339       .  S
Zr498       O526   2.395       .  S
Zr498       O528   2.406       .  S
O499        H540   0.991       .  S
O499        H543   0.990       .  S
O500        H533   0.988       .  S
O501       Zr521   2.322   1_554  S
O502       Zr522   2.356       .  S
O502        H529   0.956       .  S
O503       Zr515   2.525       .  S
O503        C505   1.310       .  A
O504       Zr522   2.391       .  S
O504        C505   1.278       .  A
C505        C660   1.487       .  S
O506       Zr518   2.416       .  S
O506        C508   1.272   1_554  A
O507       Zr521   2.459       .  S
O507        C508   1.296       .  A
O509       Zr518   2.381       .  S
O509        C511   1.272       .  A
O510       Zr522   2.494       .  S
O510        C511   1.301       .  A
O512       Zr515   2.524   1_556  S
O512        C514   1.312       .  A
O513       Zr521   2.334       .  S
O513        C514   1.267       .  A
C514        C897   1.466       .  S
Zr515       O516   2.433       .  S
Zr515       O517   2.436       .  S
Zr515       O523   2.335       .  S
Zr515       O524   2.339       .  S
Zr515       O527   2.352       .  S
Zr515       O525   2.369       .  S
O516        H536   0.990       .  S
O516        H541   0.989       .  S
O517        H537   0.990       .  S
Zr518       O519   2.443       .  S
Zr518       O520   2.435       .  S
Zr518       O524   2.346       .  S
Zr518       O523   2.362       .  S
Zr518       O528   2.405       .  S
Zr518       O526   2.394       .  S
O519        H535   0.991       .  S
O520        H534   0.990       .  S
O520        H544   0.989       .  S
Zr521       O524   2.342   1_556  S
Zr521       O526   2.376   1_556  S
Zr521       O527   2.402   1_556  S
Zr522       O523   2.381       .  S
Zr522       O525   2.410       .  S
Zr522       O528   2.395       .  S
O523        H531   0.957       .  S
O526        H530   0.966       .  S
O527        H532   0.966       .  S
C545        C546   1.409       .  A
C545        C550   1.355       .  A
C545        C939   1.453       .  S
C546        C547   1.434       .  A
C546        H551   1.075       .  S
C547        C548   1.428       .  A
C547        C563   1.549       .  S
C548        C549   1.397       .  A
C548        H552   1.072       .  S
C549        C550   1.355       .  A
C549        C687   1.448       .  S
C550        H553   1.090       .  S
C554        C555   1.361       .  A
C554        C559   1.412       .  A
C555        C556   1.364       .  A
C555        H560   1.090       .  S
C556        C557   1.423       .  A
C557        C558   1.441       .  A
C557        H561   1.079       .  S
C558        C559   1.431       .  A
C558        C565   1.572       .  S
C559        H562   1.074       .  S
C563        C564   1.450       .  A
C563        C568   1.460       .  A
C564        C565   1.452       .  A
C565        C566   1.465       .  A
C566        C567   1.486       .  A
C567        C568   1.482       .  A
C567        C569   1.609       .  S
C568        C651   1.583       .  S
C569        C570   1.439       .  A
C569        C574   1.456       .  A
C570        C571   1.425       .  A
C570        H575   1.076       .  S
C571        C572   1.377       .  A
C572        C573   1.378       .  A
C572        H576   1.087       .  S
C573        C574   1.444       .  A
C573        C583   1.515       .  S
C574        H577   1.078       .  S
O578       Zr590   2.402       .  S
O578        C580   1.266   1_554  A
O579       Zr616   2.477       .  S
O579        C580   1.298       .  A
O581       Zr593   2.544       .  S
O581        C583   1.313       .  A
O582       Zr617   2.432       .  S
O582        C583   1.286       .  A
O584       Zr593   2.529   1_556  S
O584        C586   1.312       .  A
O585       Zr616   2.371       .  S
O585        C586   1.276       .  A
O587       Zr590   2.359       .  S
O587        C589   1.270       .  A
O588       Zr617   2.500       .  S
O588        C589   1.303       .  A
C589        C649   1.452       .  S
Zr590       O591   2.442       .  S
Zr590       O592   2.433       .  S
Zr590       O596   2.331       .  S
Zr590       O597   2.354       .  S
Zr590       O620   2.397       .  S
Zr590       O622   2.384       .  S
O591        H634   0.990       .  S
O592        H633   0.989       .  S
O592        H637   0.990       .  S
Zr593       O594   2.405       .  S
Zr593       O595   2.421       .  S
Zr593       O597   2.338       .  S
Zr593       O596   2.326       .  S
Zr593       O621   2.361       .  S
Zr593       O623   2.364       .  S
O594        H635   0.990       .  S
O594        H638   0.989       .  S
O595        H628   0.991       .  S
O596       Zr616   2.329   1_554  S
O597       Zr617   2.373       .  S
O597        H624   0.956       .  S
O598       Zr610   2.381       .  S
O598        C600   1.273       .  A
O599       Zr617   2.492       .  S
O599        C600   1.301       .  A
C600        C640   1.457       .  S
O601       Zr613   2.536   1_556  S
O601        C603   1.314       .  A
O602       Zr616   2.361       .  S
O602        C603   1.273       .  A
O604       Zr613   2.515       .  S
O604        C606   1.308       .  A
O605       Zr617   2.443       .  S
O605        C606   1.288       .  A
O607       Zr610   2.409       .  S
O607        C609   1.272   1_554  A
O608       Zr616   2.481       .  S
O608        C609   1.299       .  A
Zr610       O611   2.444       .  S
Zr610       O612   2.432       .  S
Zr610       O618   2.358       .  S
Zr610       O619   2.345       .  S
Zr610       O622   2.382       .  S
Zr610       O620   2.398       .  S
O611        H631   0.990       .  S
O611        H636   0.991       .  S
O612        H632   0.990       .  S
Zr613       O614   2.396       .  S
Zr613       O615   2.428       .  S
Zr613       O619   2.338       .  S
Zr613       O618   2.340       .  S
Zr613       O623   2.371       .  S
Zr613       O621   2.350       .  S
O614        H630   0.991       .  S
O615        H629   0.988       .  S
O615        H639   0.989       .  S
Zr616       O619   2.336   1_556  S
Zr616       O621   2.415   1_556  S
Zr616       O622   2.377   1_556  S
Zr617       O618   2.373       .  S
Zr617       O620   2.402       .  S
Zr617       O623   2.420       .  S
O618        H626   0.956       .  S
O621        H625   0.966       .  S
O622        H627   0.966       .  S
C640        C641   1.406       .  A
C640        C645   1.361       .  A
C641        C642   1.423       .  A
C641        H646   1.071       .  S
C642        C643   1.455       .  A
C643        C644   1.436       .  A
C643        H647   1.080       .  S
C644        C645   1.364       .  A
C644        C684   1.488       .  S
C645        H648   1.090       .  S
C649        C650   1.408       .  A
C649        C654   1.362       .  A
C650        C651   1.422       .  A
C650        H655   1.072       .  S
C651        C652   1.460       .  A
C652        C653   1.438       .  A
C652        H656   1.080       .  S
C653        C654   1.359       .  A
C653        C693   1.495       .  S
C654        H657   1.090       .  S
C658        C659   1.367       .  A
C658        C663   1.423       .  A
C658        C766   1.472       .  S
C659        C660   1.367       .  A
C659        H664   1.089       .  S
C660        C661   1.427       .  A
C661        C662   1.446       .  A
C661        H665   1.077       .  S
C662        C663   1.435       .  A
C662        C669   1.589       .  S
C663        H666   1.073       .  S
C667        C668   1.454       .  A
C667        C672   1.448       .  A
C668        C669   1.467       .  A
C669        C670   1.483       .  A
C670        C671   1.472       .  A
C670       C1174   1.602       .  S
C671        C672   1.456       .  A
C671        C675   1.550       .  S
C672        C990   1.577       .  S
C673        C674   1.401       .  A
C673        C678   1.358       .  A
C673        C710   1.445       .  S
C674        C675   1.423       .  A
C674        H679   1.073       .  S
C675        C676   1.435       .  A
C676        C677   1.408       .  A
C676        H680   1.074       .  S
C677        C678   1.355       .  A
C677        C950   1.454       .  S
C678        H681   1.091       .  S
O682       Zr694   2.535       .  S
O682        C684   1.315       .  A
O683       Zr720   2.373   1_565  S
O683        C684   1.276       .  A
O685       Zr697   2.342       .  S
O685        C687   1.265       .  A
O686       Zr721   2.504   1_565  S
O686        C687   1.303       .  A
O688       Zr697   2.389       .  S
O688        C690   1.261       .  A
O689       Zr720   2.499   1_565  S
O689        C690   1.301       .  A
O691       Zr694   2.557       .  S
O691        C693   1.319       .  A
O692       Zr721   2.373   1_565  S
O692        C693   1.274       .  A
Zr694       O695   2.433       .  S
Zr694       O696   2.434       .  S
Zr694       O700   2.334       .  S
Zr694       O701   2.335       .  S
Zr694       O724   2.367   1_565  S
Zr694       O726   2.375   1_565  S
O695        H738   0.990       .  S
O696        H737   0.990       .  S
O696        H741   0.990       .  S
Zr697       O698   2.449       .  S
Zr697       O699   2.435   1_565  S
Zr697       O701   2.355       .  S
Zr697       O700   2.337       .  S
Zr697       O725   2.385   1_565  S
Zr697       O727   2.391   1_565  S
O698        H739   0.990       .  S
O698        H742   0.991       .  S
O699        H732   0.987   1_545  S
O700       Zr720   2.333   1_565  S
O701       Zr721   2.375   1_565  S
O701        H728   0.956       .  S
O702       Zr714   2.554       .  S
O702        C704   1.315       .  A
O703       Zr721   2.403       .  S
O703        C704   1.280       .  A
C704       C1176   1.507       .  S
O705       Zr717   2.389       .  S
O705        C707   1.261       .  A
O706       Zr720   2.487       .  S
O706        C707   1.298       .  A
C707       C1203   1.451       .  S
O708       Zr717   2.355       .  S
O708        C710   1.268       .  A
O709       Zr721   2.491       .  S
O709        C710   1.301       .  A
O711       Zr714   2.534       .  S
O711        C713   1.311       .  A
O712       Zr720   2.397       .  S
O712        C713   1.280       .  A
C713        C810   1.498       .  S
Zr714       O715   2.395       .  S
Zr714       O716   2.432       .  S
Zr714       O722   2.331       .  S
Zr714       O723   2.336       .  S
Zr714       O726   2.364       .  S
Zr714       O724   2.362       .  S
O715        H735   0.987       .  S
O715        H740   0.987       .  S
O716        H736   0.990       .  S
Zr717       O718   2.442       .  S
Zr717       O719   2.438       .  S
Zr717       O723   2.340       .  S
Zr717       O722   2.355       .  S
Zr717       O727   2.396       .  S
Zr717       O725   2.388       .  S
O718        H734   0.991       .  S
O719        H733   0.990       .  S
O719        H743   0.989       .  S
Zr720       O723   2.333       .  S
Zr720       O725   2.387       .  S
Zr720       O726   2.439       .  S
Zr721       O722   2.361       .  S
Zr721       O724   2.425       .  S
Zr721       O727   2.379       .  S
O722        H730   0.957       .  S
O725        H729   0.965       .  S
O726        H731   0.966       .  S
O744       Zr756   2.401   1_556  S
O744        C746   1.266       .  A
O745       Zr782   2.498       .  S
O745        C746   1.304   1_554  A
O747       Zr759   2.525   1_556  S
O747        C749   1.311   1_556  A
O748       Zr783   2.368       .  S
O748        C749   1.273       .  A
C749        C824   1.478   1_554  S
O750       Zr759   2.508   1_556  S
O750        C752   1.308       .  A
O751       Zr782   2.402       .  S
O751        C752   1.281   1_554  A
C752        C817   1.490       .  S
O753       Zr756   2.377   1_556  S
O753        C755   1.272       .  A
O754       Zr783   2.482       .  S
O754        C755   1.298   1_554  A
C755        C895   1.453       .  S
Zr756       O757   2.443   1_554  S
Zr756       O758   2.439       .  S
Zr756       O762   2.343       .  S
Zr756       O763   2.361       .  S
Zr756       O786   2.401       .  S
Zr756       O788   2.390       .  S
O757        H800   0.990       .  S
O758        H799   0.989       .  S
O758        H803   0.990       .  S
Zr759       O760   2.432   1_554  S
Zr759       O761   2.435       .  S
Zr759       O763   2.339       .  S
Zr759       O762   2.334       .  S
Zr759       O787   2.365       .  S
Zr759       O789   2.358       .  S
O760        H801   0.990       .  S
O760        H804   0.989       .  S
O761        H794   0.990       .  S
O762       Zr782   2.333       .  S
O763       Zr783   2.376       .  S
O763        H790   0.958   1_554  S
O764       Zr776   2.435       .  S
O764        C766   1.284       .  A
O765       Zr783   2.477       .  S
O765        C766   1.296       .  A
O767       Zr779   2.496       .  S
O767        C769   1.305       .  A
O768       Zr782   2.408       .  S
O768        C769   1.282       .  A
C769        C808   1.486       .  S
O770       Zr779   2.514       .  S
O770        C772   1.309       .  A
O771       Zr783   2.394       .  S
O771        C772   1.278       .  A
C772       C1178   1.485       .  S
O773       Zr776   2.421       .  S
O773        C775   1.276       .  A
O774       Zr782   2.481       .  S
O774        C775   1.301       .  A
C775       C1194   1.463       .  S
Zr776       O777   2.442       .  S
Zr776       O778   2.434       .  S
Zr776       O784   2.354       .  S
Zr776       O785   2.345       .  S
Zr776       O788   2.403       .  S
Zr776       O786   2.402       .  S
O777        H797   0.991       .  S
O777        H802   0.990       .  S
O778        H798   0.990       .  S
Zr779       O780   2.450       .  S
Zr779       O781   2.428       .  S
Zr779       O785   2.325       .  S
Zr779       O784   2.318       .  S
Zr779       O789   2.367       .  S
Zr779       O787   2.370       .  S
O780        H796   0.990       .  S
O781        H795   0.990       .  S
O781        H805   0.990       .  S
Zr782       O785   2.333       .  S
Zr782       O787   2.414       .  S
Zr782       O788   2.392       .  S
Zr783       O784   2.356       .  S
Zr783       O786   2.385       .  S
Zr783       O789   2.411       .  S
O784        H792   0.957       .  S
O787        H791   0.966       .  S
O788        H793   0.963       .  S
C806        C807   1.438       .  A
C806        C811   1.449       .  A
C806       C1224   1.596       .  S
C807        C808   1.422       .  A
C807        H812   1.077       .  S
C808        C809   1.376       .  A
C809        C810   1.375       .  A
C809        H813   1.088       .  S
C810        C811   1.436       .  A
C811        H814   1.080       .  S
C815        C816   1.367       .  A
C815        C820   1.427       .  A
C815        C861   1.478       .  S
C816        C817   1.371       .  A
C816        H821   1.089       .  S
C817        C818   1.428       .  A
C818        C819   1.449       .  A
C818        H822   1.077       .  S
C819        C820   1.438       .  A
C819       C1017   1.596       .  S
C820        H823   1.074       .  S
C824        C825   1.367       .  A
C824        C829   1.427       .  A
C825        C826   1.364       .  A
C825        H830   1.089       .  S
C826        C827   1.415       .  A
C826        C838   1.463       .  S
C827        C828   1.432       .  A
C827        H831   1.073       .  S
C828        C829   1.441       .  A
C828        C916   1.577       .  S
C829        H832   1.078       .  S
O833       Zr845   2.477   1_565  S
O833        C835   1.302       .  A
O834       Zr871   2.389       .  S
O834        C835   1.275       .  A
O836       Zr848   2.414       .  S
O836        C838   1.278       .  A
O837       Zr872   2.472       .  S
O837        C838   1.296       .  A
O839       Zr848   2.428   1_565  S
O839        C841   1.277       .  A
O840       Zr871   2.455       .  S
O840        C841   1.296       .  A
O842       Zr845   2.485       .  S
O842        C844   1.303       .  A
O843       Zr872   2.394       .  S
O843        C844   1.276       .  A
C844        C919   1.482       .  S
Zr845       O846   2.431       .  S
Zr845       O847   2.431       .  S
Zr845       O851   2.344   1_545  S
Zr845       O852   2.339       .  S
Zr845       O875   2.348       .  S
Zr845       O877   2.348   1_545  S
O846        H889   0.990       .  S
O847        H888   0.989       .  S
O847        H892   0.990       .  S
Zr848       O849   2.446       .  S
Zr848       O850   2.437       .  S
Zr848       O852   2.363       .  S
Zr848       O851   2.354   1_545  S
Zr848       O876   2.404   1_545  S
Zr848       O878   2.407       .  S
O849        H890   0.991       .  S
O849        H893   0.990       .  S
O850        H883   0.987   1_556  S
O851       Zr871   2.345       .  S
O852       Zr872   2.376       .  S
O852        H879   0.959       .  S
O853       Zr865   2.505       .  S
O853        C855   1.307       .  A
O854       Zr872   2.385       .  S
O854        C855   1.276       .  A
C855       C1010   1.476       .  S
O856       Zr868   2.465   1_565  S
O856        C858   1.287       .  A
O857       Zr871   2.460       .  S
O857        C858   1.296       .  A
O859       Zr868   2.456       .  S
O859        C861   1.288       .  A
O860       Zr872   2.470       .  S
O860        C861   1.296       .  A
O862       Zr865   2.526   1_565  S
O862        C864   1.313       .  A
O863       Zr871   2.363       .  S
O863        C864   1.273       .  A
Zr865       O866   2.451       .  S
Zr865       O867   2.415       .  S
Zr865       O873   2.315       .  S
Zr865       O874   2.328   1_545  S
Zr865       O877   2.358   1_545  S
Zr865       O875   2.369       .  S
O866        H886   0.990       .  S
O866        H891   0.990       .  S
O867        H887   0.990       .  S
Zr868       O869   2.440       .  S
Zr868       O870   2.435       .  S
Zr868       O874   2.340   1_545  S
Zr868       O873   2.355       .  S
Zr868       O878   2.416       .  S
Zr868       O876   2.415   1_545  S
O869        H885   0.991       .  S
O870        H884   0.990   1_556  S
O870        H894   0.989   1_556  S
Zr871       O874   2.340       .  S
Zr871       O876   2.391       .  S
Zr871       O877   2.401       .  S
Zr872       O873   2.364       .  S
Zr872       O875   2.402       .  S
Zr872       O878   2.388       .  S
O873        H881   0.956       .  S
O876        H880   0.966       .  S
O877        H882   0.966       .  S
C895        C896   1.362       .  A
C895        C900   1.412       .  A
C896        C897   1.361       .  A
C896        H901   1.090       .  S
C897        C898   1.416       .  A
C898        C899   1.437       .  A
C898        H902   1.078       .  S
C899        C900   1.428       .  A
C899        C915   1.562       .  S
C900        H903   1.074       .  S
C904        C905   1.443       .  A
C904        C909   1.431       .  A
C904        C913   1.580       .  S
C905        C906   1.429       .  A
C905        H910   1.079       .  S
C906        C907   1.367       .  A
C907        C908   1.377       .  A
C907        H911   1.088       .  S
C908        C909   1.419       .  A
C908       C1116   1.471       .  S
C909        H912   1.079       .  S
C913        C914   1.447       .  A
C913        C918   1.450       .  A
C914        C915   1.450       .  A
C915        C916   1.459       .  A
C916        C917   1.462       .  A
C917        C918   1.462       .  A
C917        C921   1.561       .  S
C918       C1001   1.572       .  S
C919        C920   1.429       .  A
C919        C924   1.378       .  A
C920        C921   1.441       .  A
C920        H925   1.079       .  S
C921        C922   1.423       .  A
C922        C923   1.398       .  A
C922        H926   1.075       .  S
C923        C924   1.364       .  A
C923        C959   1.457       .  S
C924        H927   1.088       .  S
O928       Zr940   2.382       .  S
O928        C930   1.261       .  A
O929       Zr966   2.480   1_565  S
O929        C930   1.297       .  A
O931       Zr943   2.546       .  S
O931        C933   1.315       .  A
O932       Zr967   2.362   1_565  S
O932        C933   1.272       .  A
O934       Zr943   2.503       .  S
O934        C936   1.306       .  A
O935       Zr966   2.385   1_565  S
O935        C936   1.278       .  A
O937       Zr940   2.362       .  S
O937        C939   1.270       .  A
O938       Zr967   2.495   1_565  S
O938        C939   1.300       .  A
Zr940       O941   2.442       .  S
Zr940       O942   2.438   1_565  S
Zr940       O946   2.344       .  S
Zr940       O947   2.357       .  S
Zr940       O970   2.395   1_565  S
Zr940       O972   2.384   1_565  S
O941        H984   0.990       .  S
O942        H983   0.989   1_545  S
O942        H987   0.990   1_545  S
Zr943       O944   2.427       .  S
Zr943       O945   2.431       .  S
Zr943       O947   2.324       .  S
Zr943       O946   2.345       .  S
Zr943       O971   2.366   1_565  S
Zr943       O973   2.355   1_565  S
O944        H985   0.990       .  S
O944        H988   0.988       .  S
O945        H978   0.990       .  S
O946       Zr966   2.337   1_565  S
O947       Zr967   2.362   1_565  S
O947        H974   0.957       .  S
O948       Zr960   2.389       .  S
O948        C950   1.274       .  A
O949       Zr967   2.481       .  S
O949        C950   1.299       .  A
O951       Zr963   2.517       .  S
O951        C953   1.310       .  A
O952       Zr966   2.368       .  S
O952        C953   1.275       .  A
C953       C1003   1.477       .  S
O954       Zr963   2.544       .  S
O954        C956   1.316       .  A
O955       Zr967   2.355       .  S
O955        C956   1.270       .  A
C956        C992   1.481       .  S
O957       Zr960   2.397       .  S
O957        C959   1.267       .  A
O958       Zr966   2.483       .  S
O958        C959   1.299       .  A
Zr960       O961   2.444       .  S
Zr960       O962   2.435       .  S
Zr960       O968   2.358       .  S
Zr960       O969   2.353       .  S
Zr960       O972   2.388       .  S
Zr960       O970   2.404       .  S
O961        H981   0.991       .  S
O961        H986   0.990       .  S
O962        H982   0.990       .  S
Zr963       O964   2.429       .  S
Zr963       O965   2.426       .  S
Zr963       O969   2.350       .  S
Zr963       O968   2.332       .  S
Zr963       O973   2.361       .  S
Zr963       O971   2.358       .  S
O964        H980   0.990       .  S
O965        H979   0.988       .  S
O965        H989   0.989       .  S
Zr966       O969   2.351       .  S
Zr966       O971   2.427       .  S
Zr966       O972   2.373       .  S
Zr967       O968   2.377       .  S
Zr967       O970   2.374       .  S
Zr967       O973   2.419       .  S
O968        H976   0.958       .  S
O971        H975   0.966       .  S
O972        H977   0.966       .  S
C990        C991   1.445       .  A
C990        C995   1.429       .  A
C991        C992   1.432       .  A
C991        H996   1.079       .  S
C992        C993   1.364       .  A
C993        C994   1.361       .  A
C993        H997   1.089       .  S
C994        C995   1.410       .  A
C994       C1093   1.457       .  S
C995        H998   1.077       .  S
C999       C1000   1.414       .  A
C999       C1004   1.367       .  A
C999       C1110   1.468       .  S
C1000      C1001   1.434       .  A
C1000      H1005   1.075       .  S
C1001      C1002   1.439       .  A
C1002      C1003   1.422       .  A
C1002      H1006   1.079       .  S
C1003      C1004   1.369       .  A
C1004      H1007   1.089       .  S
C1008      C1009   1.432       .  A
C1008      C1013   1.453       .  A
C1008      C1022   1.596       .  S
C1009      C1010   1.422       .  A
C1009      H1014   1.078       .  S
C1010      C1011   1.373       .  A
C1011      C1012   1.368       .  A
C1011      H1015   1.088       .  S
C1012      C1013   1.439       .  A
C1012      C1051   1.502       .  S
C1013      H1016   1.079       .  S
C1017      C1018   1.459       .  A
C1017      C1022   1.476       .  A
C1018      C1019   1.455       .  A
C1019      C1020   1.463       .  A
C1020      C1021   1.468       .  A
C1020      C1156   1.593       .  S
C1021      C1022   1.478       .  A
C1021      C1169   1.565       .  S
O1023     Zr1035   2.395   1_565  S
O1023      C1025   1.263       .  A
O1024     Zr1061   2.494       .  S
O1024      C1025   1.299       .  A
O1026     Zr1038   2.512       .  S
O1026      C1028   1.308       .  A
O1027     Zr1062   2.406       .  S
O1027      C1028   1.280       .  A
C1028      C1201   1.497       .  S
O1029     Zr1038   2.517   1_565  S
O1029      C1031   1.311       .  A
O1030     Zr1061   2.343       .  S
O1030      C1031   1.269       .  A
O1032     Zr1035   2.337       .  S
O1032      C1034   1.266       .  A
O1033     Zr1062   2.485       .  S
O1033      C1034   1.298       .  A
C1034      C1147   1.445       .  S
Zr1035     O1036   2.440       .  S
Zr1035     O1037   2.442       .  S
Zr1035     O1041   2.329       .  S
Zr1035     O1042   2.357       .  S
Zr1035     O1065   2.390       .  S
Zr1035     O1067   2.377   1_545  S
O1036      H1079   0.990       .  S
O1037      H1078   0.990   1_545  S
O1037      H1082   0.990       .  S
Zr1038     O1039   2.432       .  S
Zr1038     O1040   2.423       .  S
Zr1038     O1042   2.338       .  S
Zr1038     O1041   2.319       .  S
Zr1038     O1066   2.359   1_545  S
Zr1038     O1068   2.366       .  S
O1039      H1080   0.990       .  S
O1039      H1083   0.990       .  S
O1040      H1073   0.989       .  S
O1041     Zr1061   2.316   1_545  S
O1042     Zr1062   2.368       .  S
O1042      H1069   0.958       .  S
O1043     Zr1055   2.360       .  S
O1043      C1045   1.268       .  A
O1044     Zr1062   2.490       .  S
O1044      C1045   1.302       .  A
C1045      C1167   1.446       .  S
O1046     Zr1058   2.531   1_565  S
O1046      C1048   1.312       .  A
O1047     Zr1061   2.343       .  S
O1047      C1048   1.270       .  A
O1049     Zr1058   2.564       .  S
O1049      C1051   1.320       .  A
O1050     Zr1062   2.389       .  S
O1050      C1051   1.278       .  A
O1052     Zr1055   2.392   1_565  S
O1052      C1054   1.263       .  A
O1053     Zr1061   2.469       .  S
O1053      C1054   1.296       .  A
Zr1055     O1056   2.444       .  S
Zr1055     O1057   2.435       .  S
Zr1055     O1063   2.359       .  S
Zr1055     O1064   2.338   1_545  S
Zr1055     O1067   2.385   1_545  S
Zr1055     O1065   2.397       .  S
O1056      H1076   0.990       .  S
O1056      H1081   0.990       .  S
O1057      H1077   0.990       .  S
Zr1058     O1059   2.398       .  S
Zr1058     O1060   2.437       .  S
Zr1058     O1064   2.334   1_545  S
Zr1058     O1063   2.342       .  S
Zr1058     O1068   2.357       .  S
Zr1058     O1066   2.357   1_545  S
O1059      H1075   0.991       .  S
O1060      H1074   0.989       .  S
O1060      H1084   0.990       .  S
Zr1061     O1064   2.332       .  S
Zr1061     O1066   2.427       .  S
Zr1061     O1067   2.371       .  S
Zr1062     O1063   2.369       .  S
Zr1062     O1065   2.389       .  S
Zr1062     O1068   2.421       .  S
O1063      H1071   0.957       .  S
O1066      H1070   0.966       .  S
O1067      H1072   0.966       .  S
O1085     Zr1097   2.510   1_655  S
O1085      C1087   1.309       .  A
O1086     Zr1123   2.385       .  S
O1086      C1087   1.277       .  A
O1088     Zr1100   2.369       .  S
O1088      C1090   1.270       .  A
O1089     Zr1124   2.490       .  S
O1089      C1090   1.300       .  A
C1090      C1149   1.451       .  S
O1091     Zr1100   2.399   1_655  S
O1091      C1093   1.265       .  A
O1092     Zr1123   2.493       .  S
O1092      C1093   1.302       .  A
O1094     Zr1097   2.539       .  S
O1094      C1096   1.314       .  A
O1095     Zr1124   2.363       .  S
O1095      C1096   1.271       .  A
C1096      C1210   1.484       .  S
Zr1097     O1098   2.431       .  S
Zr1097     O1099   2.433       .  S
Zr1097     O1103   2.345   1_455  S
Zr1097     O1104   2.325       .  S
Zr1097     O1127   2.358       .  S
Zr1097     O1129   2.356   1_455  S
O1098      H1141   0.990       .  S
O1099      H1140   0.990       .  S
O1099      H1144   0.990   1_455  S
Zr1100     O1101   2.447       .  S
Zr1100     O1102   2.438       .  S
Zr1100     O1104   2.362       .  S
Zr1100     O1103   2.347   1_455  S
Zr1100     O1128   2.393   1_455  S
Zr1100     O1130   2.403       .  S
O1101      H1142   0.990       .  S
O1101      H1145   0.991       .  S
O1102      H1135   0.989   1_455  S
O1103     Zr1123   2.332       .  S
O1104     Zr1124   2.363       .  S
O1104      H1131   0.957       .  S
O1105     Zr1117   2.559       .  S
O1105      C1107   1.320       .  A
O1106     Zr1124   2.363       .  S
O1106      C1107   1.273       .  A
C1107      C1160   1.486       .  S
O1108     Zr1120   2.431   1_655  S
O1108      C1110   1.280       .  A
O1109     Zr1123   2.480       .  S
O1109      C1110   1.299       .  A
O1111     Zr1120   2.441       .  S
O1111      C1113   1.286       .  A
O1112     Zr1124   2.479       .  S
O1112      C1113   1.298       .  A
C1113      C1165   1.473       .  S
O1114     Zr1117   2.488   1_655  S
O1114      C1116   1.302       .  A
O1115     Zr1123   2.378       .  S
O1115      C1116   1.275       .  A
Zr1117     O1118   2.451       .  S
Zr1117     O1119   2.413       .  S
Zr1117     O1125   2.303       .  S
Zr1117     O1126   2.323   1_455  S
Zr1117     O1129   2.370   1_455  S
Zr1117     O1127   2.378       .  S
O1118      H1138   0.990   1_455  S
O1118      H1143   0.989       .  S
O1119      H1139   0.990   1_455  S
Zr1120     O1121   2.441       .  S
Zr1120     O1122   2.436       .  S
Zr1120     O1126   2.340   1_455  S
Zr1120     O1125   2.354       .  S
Zr1120     O1130   2.406       .  S
Zr1120     O1128   2.410   1_455  S
O1121      H1137   0.991       .  S
O1122      H1136   0.990       .  S
O1122      H1146   0.990       .  S
Zr1123     O1126   2.338       .  S
Zr1123     O1128   2.386       .  S
Zr1123     O1129   2.417       .  S
Zr1124     O1125   2.356       .  S
Zr1124     O1127   2.422       .  S
Zr1124     O1130   2.381       .  S
O1125      H1133   0.956       .  S
O1128      H1132   0.964       .  S
O1129      H1134   0.966       .  S
C1147      C1148   1.357       .  A
C1147      C1152   1.395       .  A
C1148      C1149   1.354       .  A
C1148      H1153   1.090       .  S
C1149      C1150   1.409       .  A
C1150      C1151   1.434       .  A
C1150      H1154   1.076       .  S
C1151      C1152   1.424       .  A
C1151      C1222   1.544       .  S
C1152      H1155   1.070       .  S
C1156      C1157   1.442       .  A
C1156      C1161   1.440       .  A
C1157      C1158   1.431       .  A
C1157      H1162   1.080       .  S
C1158      C1159   1.373       .  A
C1159      C1160   1.361       .  A
C1159      H1163   1.088       .  S
C1160      C1161   1.427       .  A
C1161      H1164   1.076       .  S
C1165      C1166   1.357       .  A
C1165      C1170   1.427       .  A
C1166      C1167   1.359       .  A
C1166      H1171   1.091       .  S
C1167      C1168   1.398       .  A
C1168      C1169   1.421       .  A
C1168      H1172   1.072       .  S
C1169      C1170   1.445       .  A
C1170      H1173   1.076       .  S
C1174      C1175   1.455       .  A
C1174      C1179   1.435       .  A
C1175      C1176   1.439       .  A
C1175      H1180   1.079       .  S
C1176      C1177   1.372       .  A
C1177      C1178   1.374       .  A
C1177      H1181   1.087       .  S
C1178      C1179   1.427       .  A
C1179      H1182   1.078       .  S
C1183      C1184   1.366       .  A
C1183      C1188   1.419       .  A
C1184      C1185   1.368       .  A
C1184      H1189   1.089       .  S
C1185      C1186   1.429       .  A
C1186      C1187   1.446       .  A
C1186      H1190   1.078       .  S
C1187      C1188   1.432       .  A
C1188      H1191   1.072       .  S
C1192      C1193   1.371       .  A
C1192      C1197   1.424       .  A
C1193      C1194   1.367       .  A
C1193      H1198   1.089       .  S
C1194      C1195   1.410       .  A
C1195      C1196   1.429       .  A
C1195      H1199   1.076       .  S
C1196      C1197   1.440       .  A
C1196      C1219   1.567       .  S
C1197      H1200   1.079       .  S
C1201      C1202   1.375       .  A
C1201      C1206   1.437       .  A
C1202      C1203   1.364       .  A
C1202      H1207   1.085       .  S
C1203      C1204   1.395       .  A
C1204      C1205   1.411       .  A
C1204      H1208   1.074       .  S
C1205      C1206   1.454       .  A
C1205      C1223   1.565       .  S
C1206      H1209   1.080       .  S
C1210      C1211   1.364       .  A
C1210      C1215   1.431       .  A
C1211      C1212   1.362       .  A
C1211      H1216   1.089       .  S
C1212      C1213   1.405       .  A
C1213      C1214   1.423       .  A
C1213      H1217   1.076       .  S
C1214      C1215   1.448       .  A
C1214      C1221   1.573       .  S
C1215      H1218   1.078       .  S
C1219      C1220   1.458       .  A
C1219      C1224   1.463       .  A
C1220      C1221   1.458       .  A
C1221      C1222   1.446       .  A
C1222      C1223   1.451       .  A
C1223      C1224   1.467       .  A
