geometry optimzed in LAMMPS
_audit_creation_date              2020-11-30 
_audit_creation_method            'lammps2cif' 
_symmetry_space_group_name_H-M    'P1' 
_symmetry_Int_Tables_number       1 
_symmetry_cell_setting            triclinic 
loop_ 
_symmetry_equiv_pos_as_xyz 
  x,y,z 
_cell_length_a                    55.57054675 
_cell_length_b                    55.40905449913927 
_cell_length_c                    55.649868807988454 
_cell_angle_alpha                 90.63546146452907 
_cell_angle_beta                  90.20639915139152 
_cell_angle_gamma                 90.17029391683083 
loop_ 
_atom_site_label 
_atom_site_type_symbol 
_atom_site_fract_x 
_atom_site_fract_y 
_atom_site_fract_z 
_atom_site_charge 
O1          O  0.49705381  0.47897666  0.43070979    -0.77800
C2          C  0.43284976  0.53115074  0.44041082     0.83200
O3          O  0.52137355  0.53950609  0.48273606    -0.79000
O4          O  0.44242941  0.53139675  0.51540590    -0.80400
O5          O  0.44987502  0.44917617  0.50418038    -0.80200
O6          O  0.49219681  0.44731774  0.45469144    -0.78900
Zn7        Zn  0.48067758  0.50657561  0.44771055     1.55700
O8          O  0.42321310  0.47898749  0.50362556    -0.80300
Cd9        Cd  0.47897751  0.46372626  0.48544572     1.59700
Cd10       Cd  0.49905153  0.51725713  0.50273595     1.59600
O11         O  0.50653815  0.45787631  0.50858728    -0.80300
O12         O  0.47580510  0.49891693  0.48098246    -1.90800
Cd13       Cd  0.44227609  0.50676453  0.48853670     1.59900
O14         O  0.52019431  0.49352305  0.52198588    -0.80200
O15         O  0.42598339  0.52506660  0.46129814    -0.78900
C16         C  0.51986039  0.54338775  0.46027880     0.83700
C17         C  0.50139122  0.45712714  0.43617336     0.83300
O18         O  0.45217137  0.52280039  0.43124645    -0.77800
C19         C  0.43002868  0.45850395  0.51113949     0.84100
O20         O  0.50507471  0.53221054  0.44677534    -0.77900
C21         C  0.52058423  0.47054455  0.52157272     0.84300
C22         C  0.45763786  0.54222808  0.52867727     0.84600
O23         O  0.48025946  0.53902110  0.52688704    -0.80300
O24         O  0.46860933  0.20316013  0.21614753    -0.77800
C25         C  0.53746947  0.20184861  0.26218908     0.83200
O26         O  0.46000142  0.25760999  0.28177983    -0.79000
O27         O  0.54136805  0.27748676  0.26455822    -0.80400
O28         O  0.52345923  0.26691203  0.18159999    -0.80200
O29         O  0.47120717  0.22819946  0.18527455    -0.78900
Zn30       Zn  0.48877331  0.21800156  0.24266285     1.55700
O31         O  0.55139871  0.26461312  0.21030631    -0.80300
Cd32       Cd  0.49286831  0.25560428  0.20014270     1.59700
Cd33       Cd  0.48199504  0.27487103  0.25605887     1.59600
O34         O  0.47260378  0.28601066  0.19753455    -0.80300
O35         O  0.49893897  0.25001656  0.23501135    -1.90800
Cd36       Cd  0.53414063  0.25133004  0.23995441     1.59900
O37         O  0.46224636  0.29812439  0.23452561    -0.80200
O38         O  0.54835790  0.22084095  0.25549744    -0.78900
C39         C  0.45678666  0.23488391  0.28404406     0.83700
C40         C  0.46210051  0.20955940  0.19515169     0.83300
O41         O  0.51561702  0.19784303  0.25621627    -0.77800
C42         C  0.54447056  0.27174480  0.18970642     0.84100
O43         O  0.46668176  0.21967864  0.27013386    -0.77900
C44         C  0.46188719  0.30043812  0.21173908     0.84300
C45         C  0.53003412  0.29424607  0.27525594     0.84600
O46         O  0.50729455  0.29670917  0.27360935    -0.80300
C47         C  0.78725870  0.77269369  0.78485930     0.80900
N48         N  0.79725136  0.78229265  0.76463088    -0.77400
C49         C  0.78841598  0.80317763  0.75501204     0.83300
N50         N  0.76949839  0.81445020  0.76597253    -0.77400
C51         C  0.75943687  0.80533282  0.78618778     0.83400
N52         N  0.76847082  0.78448028  0.79525626    -0.79100
C53         C  0.75928426  0.96373291  0.95034107     0.80900
N54         N  0.76974475  0.98302786  0.93936587    -0.77400
C55         C  0.79069792  0.99266013  0.94778810     0.83300
N56         N  0.80132413  0.98258013  0.96730099    -0.77400
C57         C  0.79134169  0.96339491  0.97846571     0.83400
N58         N  0.77021027  0.95407186  0.96990208    -0.79100
C59         C  0.93944910  0.80070577  0.97542337     0.80900
N60         N  0.92927966  0.78145940  0.96381454    -0.77400
C61         C  0.93864353  0.77307055  0.94267349     0.83300
N62         N  0.95836795  0.78405721  0.93343550    -0.77400
C63         C  0.96885492  0.80324212  0.94486428     0.83400
N64         N  0.95921729  0.81141308  0.96574191    -0.79100
C65         C  0.94095727  0.95806138  0.75198804     0.80900
N66         N  0.93064906  0.97759529  0.76285697    -0.77400
C67         C  0.94023267  0.98694150  0.78347366     0.83300
N68         N  0.96019571  0.97645715  0.79303385    -0.77400
C69         C  0.97067892  0.95681027  0.78256056     0.83400
N70         N  0.96077701  0.94768030  0.76204940    -0.79100
N71         N  0.05600707  0.87993607  0.86586529    -0.36000
N72         N  0.09317960  0.90425868  0.83830380    -0.56500
N73         N  0.12981147  0.87903277  0.86672719    -0.36000
N74         N  0.09276310  0.85202120  0.89146871    -0.56500
C75         C  0.04228546  0.89082904  0.84897570     0.27600
C76         C  0.04217499  0.86306144  0.87663899     0.27600
C77         C  0.14347426  0.88901853  0.84942429     0.27600
C78         C  0.14317644  0.86152984  0.87700934     0.27600
C79         C  0.07389295  0.91671366  0.83027327     0.36200
C80         C  0.11300008  0.91614562  0.83072042     0.36200
C81         C  0.07314337  0.84529976  0.90398341     0.36200
C82         C  0.11211728  0.84473589  0.90421496     0.36200
C83         C  0.01934603  0.88090019  0.84924188    -0.21200
C84         C  0.01927743  0.86343108  0.86664151    -0.21200
C85         C  0.16585975  0.87798628  0.84896418    -0.21200
C86         C  0.16564425  0.86062208  0.86631530    -0.21200
C87         C  0.08153205  0.93635755  0.81706488    -0.22300
C88         C  0.10630679  0.93606319  0.81744936    -0.22300
C89         C  0.08005512  0.83352583  0.92476134    -0.22300
C90         C  0.10479327  0.83321813  0.92492909    -0.22300
C91         C  0.04950578  0.91009238  0.83393396    -0.17600
C92         C  0.04912385  0.84826825  0.89614859    -0.17600
C93         C  0.13620407  0.84706825  0.89654298    -0.17600
C94         C  0.13701093  0.90873982  0.83488535    -0.17600
H95         H  0.00414450  0.88579625  0.83812329     0.15300
H96         H  0.00399694  0.85237901  0.87150253     0.15300
H97         H  0.18084817  0.88202850  0.83729563     0.15300
H98         H  0.18041320  0.84870761  0.87060031     0.15300
H99         H  0.07041831  0.94953740  0.80811293     0.13500
H100        H  0.11803708  0.94893012  0.80880913     0.13500
H101        H  0.06848794  0.82572247  0.93823846     0.13500
H102        H  0.11607304  0.82516271  0.93854209     0.13500
H103        H  0.07341549  0.88462086  0.87070159     0.26800
H104        H  0.11294188  0.88485368  0.87209895     0.26800
N105        N  0.86709439  0.88284159  0.06463565    -0.36000
N106        N  0.84264543  0.91053128  0.10200084    -0.56500
N107        N  0.86848774  0.88289559  0.13815712    -0.36000
N108        N  0.89015111  0.85264016  0.10090975    -0.56500
C109        C  0.85023885  0.89430842  0.05133211     0.27600
C110        C  0.87667905  0.86522394  0.05064476     0.27600
C111        C  0.85285900  0.89536820  0.15204468     0.27600
C112        C  0.87665014  0.86428910  0.15140206     0.27600
C113        C  0.83487556  0.92289716  0.08269302     0.36200
C114        C  0.83716995  0.92403023  0.12157998     0.36200
C115        C  0.90223642  0.84472286  0.08131360     0.36200
C116        C  0.90174589  0.84381072  0.12033811     0.36200
C117        C  0.84929582  0.88392356  0.02854531    -0.21200
C118        C  0.86594510  0.86563725  0.02810640    -0.21200
C119        C  0.85125728  0.88465778  0.17442509    -0.21200
C120        C  0.86622777  0.86506013  0.17399423    -0.21200
C121        C  0.82414017  0.94427397  0.09005097    -0.22300
C122        C  0.82554032  0.94496094  0.11472677    -0.22300
C123        C  0.92138986  0.83039609  0.08833952    -0.22300
C124        C  0.92105496  0.82980229  0.11307788    -0.22300
C125        C  0.83652041  0.91468494  0.05861224    -0.17600
C126        C  0.89558690  0.84943193  0.05718222    -0.17600
C127        C  0.89464364  0.84771738  0.14446622    -0.17600
C128        C  0.84078413  0.91676101  0.14557202    -0.17600
H129        H  0.83788221  0.88907560  0.01367025     0.15300
H130        H  0.86975565  0.85400125  0.01284646     0.15300
H131        H  0.84060064  0.89043183  0.18966240     0.15300
H132        H  0.86932603  0.85293560  0.18879616     0.15300
H133        H  0.81599370  0.95785920  0.07883680     0.13500
H134        H  0.81854085  0.95908170  0.12631221     0.13500
H135        H  0.93422762  0.82127669  0.07685072     0.13500
H136        H  0.93355919  0.82017308  0.12440994     0.13500
H137        H  0.87279034  0.88757439  0.08176674     0.26800
H138        H  0.87440498  0.88776897  0.12126593     0.26800
N139        N  0.86148830  0.87928507  0.66481218    -0.36000
N140        N  0.88656064  0.90683441  0.62839367    -0.56500
N141        N  0.86046506  0.87987289  0.59113882    -0.36000
N142        N  0.83285256  0.85485950  0.62759725    -0.56500
C143        C  0.87244158  0.89632827  0.67859369     0.27600
C144        C  0.84361801  0.86965754  0.67807264     0.27600
C145        C  0.87053727  0.89748823  0.57791078     0.27600
C146        C  0.84292907  0.86966575  0.57755070     0.27600
C147        C  0.89982077  0.91349552  0.64784203     0.36200
C148        C  0.89873034  0.91431348  0.60878052     0.36200
C149        C  0.82549999  0.84237329  0.64698625     0.36200
C150        C  0.82563150  0.84210298  0.60798312     0.36200
C151        C  0.86132059  0.89762840  0.70085868    -0.21200
C152        C  0.84320485  0.88070725  0.70057247    -0.21200
C153        C  0.85922095  0.89852733  0.55567837    -0.21200
C154        C  0.84178897  0.88094698  0.55544948    -0.21200
C155        C  0.92033970  0.92562057  0.64052606    -0.22300
C156        C  0.91956530  0.92626649  0.61581233    -0.22300
C157        C  0.81316121  0.82177869  0.63968836    -0.22300
C158        C  0.81318964  0.82163874  0.61494294    -0.22300
C159        C  0.89304135  0.90976230  0.67210176    -0.17600
C160        C  0.82889599  0.84992268  0.67112328    -0.17600
C161        C  0.82900757  0.84944517  0.58393419    -0.17600
C162        C  0.89073588  0.91148005  0.58467997    -0.17600
H163        H  0.86597378  0.90932884  0.71588532     0.15300
H164        H  0.83126219  0.87679328  0.71536190     0.15300
H165        H  0.86336337  0.91040500  0.54093997     0.15300
H166        H  0.82990326  0.87671272  0.54052829     0.15300
H167        H  0.93438503  0.93327515  0.65179452     0.13500
H168        H  0.93286035  0.93451407  0.60432231     0.13500
H169        H  0.80488735  0.80835929  0.65100801     0.13500
H170        H  0.80494283  0.80809165  0.60339473     0.13500
H171        H  0.86701928  0.87333375  0.64798605     0.26800
H172        H  0.86636733  0.87398300  0.60776417     0.26800
N173        N  0.85928453  0.68398794  0.86545502    -0.36000
N174        N  0.83011195  0.64633393  0.84224905    -0.56500
N175        N  0.85973059  0.60971989  0.86561918    -0.36000
N176        N  0.88614193  0.64752758  0.89177938    -0.56500
C177        C  0.84226298  0.69765843  0.85474733     0.27600
C178        C  0.87111815  0.69824060  0.88156742     0.27600
C179        C  0.84171443  0.59588027  0.85655859     0.27600
C180        C  0.87094324  0.59659901  0.88265954     0.27600
C181        C  0.82166157  0.66558675  0.83011737     0.36200
C182        C  0.82158613  0.62642720  0.83075393     0.36200
C183        C  0.89897919  0.66728298  0.89842321     0.36200
C184        C  0.89924606  0.62811068  0.89822441     0.36200
C185        C  0.84355140  0.72102240  0.86387397    -0.21200
C186        C  0.86155627  0.72134507  0.88088612    -0.21200
C187        C  0.84165651  0.57364667  0.86775285    -0.21200
C188        C  0.86010346  0.57409456  0.88420762    -0.21200
C189        C  0.80724511  0.65788627  0.81114032    -0.22300
C190        C  0.80717524  0.63309492  0.81155151    -0.22300
C191        C  0.92037897  0.66037153  0.90917891    -0.22300
C192        C  0.92053850  0.63554315  0.90906800    -0.22300
C193        C  0.82628819  0.69004989  0.83619692    -0.17600
C194        C  0.89107974  0.69141984  0.89603270    -0.17600
C195        C  0.89134618  0.60386887  0.89615244    -0.17600
C196        C  0.82584229  0.60231218  0.83785289    -0.17600
H197        H  0.83262461  0.73630717  0.85884055     0.15300
H198        H  0.86709038  0.73695767  0.89140067     0.15300
H199        H  0.82957024  0.55861590  0.86441504     0.15300
H200        H  0.86499104  0.55945476  0.89596149     0.15300
H201        H  0.79777547  0.66896748  0.79832271     0.13500
H202        H  0.79767046  0.62133276  0.79906763     0.13500
H203        H  0.93429754  0.67199917  0.91657051     0.13500
H204        H  0.93453381  0.62425285  0.91645589     0.13500
H205        H  0.86337914  0.66632174  0.86107679     0.26800
H206        H  0.86487482  0.62657640  0.85960830     0.26800
N207        N  0.67397125  0.88300830  0.86935481    -0.36000
N208        N  0.63695116  0.85445834  0.84494226    -0.56500
N209        N  0.59989980  0.88253927  0.87005910    -0.36000
N210        N  0.63688615  0.90835833  0.89698373    -0.56500
C211        C  0.68759834  0.86551630  0.85905162     0.27600
C212        C  0.68763107  0.89414164  0.88637506     0.27600
C213        C  0.58685531  0.86420391  0.86053911     0.27600
C214        C  0.58666595  0.89234177  0.88798478     0.27600
C215        C  0.65635692  0.84721920  0.83214135     0.36200
C216        C  0.61724826  0.84735746  0.83232712     0.36200
C217        C  0.65640067  0.92145549  0.90383885     0.36200
C218        C  0.61727014  0.92101804  0.90404386     0.36200
C219        C  0.71026839  0.86566564  0.86955560    -0.21200
C220        C  0.71026201  0.88363761  0.88684226    -0.21200
C221        C  0.56513610  0.86221686  0.87260184    -0.21200
C222        C  0.56507073  0.87994292  0.89003615    -0.21200
C223        C  0.64892545  0.83510650  0.81147424    -0.22300
C224        C  0.62413784  0.83521359  0.81158587    -0.22300
C225        C  0.64914528  0.94235044  0.91561981    -0.22300
C226        C  0.62440203  0.94211276  0.91568333    -0.22300
C227        C  0.68063406  0.85045852  0.83943873    -0.17600
C228        C  0.68068610  0.91432494  0.90060855    -0.17600
C229        C  0.59306950  0.91299108  0.90159661    -0.17600
C230        C  0.59319669  0.85052254  0.84005093    -0.17600
H231        H  0.72533422  0.85413590  0.86511530     0.15300
H232        H  0.72532453  0.88857403  0.89828218     0.15300
H233        H  0.55069601  0.84951195  0.86900957     0.15300
H234        H  0.55060624  0.88351991  0.90254034     0.15300
H235        H  0.66018143  0.82695124  0.79780715     0.13500
H236        H  0.61251790  0.82711446  0.79806912     0.13500
H237        H  0.66049755  0.95632884  0.92336281     0.13500
H238        H  0.61297130  0.95585884  0.92352060     0.13500
H239        H  0.65682466  0.88808915  0.86406063     0.26800
H240        H  0.61609225  0.88908721  0.86346519     0.26800
N241        N  0.87240990  0.07676053  0.86881809    -0.36000
N242        N  0.85332284  0.11361521  0.90152620    -0.56500
N243        N  0.87760387  0.15045654  0.87295026    -0.36000
N244        N  0.89955297  0.11370407  0.84258097    -0.56500
C245        C  0.86216640  0.06282996  0.88591307     0.27600
C246        C  0.88784211  0.06266973  0.85613734     0.27600
C247        C  0.87014503  0.16389933  0.89190643     0.27600
C248        C  0.89311485  0.16417927  0.86032607     0.27600
C249        C  0.83954275  0.09473494  0.90826345     0.36200
C250        C  0.84296930  0.13366366  0.91084728     0.36200
C251        C  0.90566007  0.09411457  0.82923755     0.36200
C252        C  0.90646648  0.13342376  0.83014648     0.36200
C253        C  0.87084216  0.03949462  0.88378706    -0.21200
C254        C  0.88706186  0.03940282  0.86514796    -0.21200
C255        C  0.88096801  0.18646996  0.89122021    -0.21200
C256        C  0.89547539  0.18662769  0.87139971    -0.21200
C257        C  0.82054584  0.10276824  0.92227742    -0.22300
C258        C  0.82272426  0.12744869  0.92392885    -0.22300
C259        C  0.91686733  0.10144576  0.80829877    -0.22300
C260        C  0.91738143  0.12632553  0.80888784    -0.22300
C261        C  0.84450126  0.07027354  0.90280936    -0.17600
C262        C  0.90190247  0.06973676  0.83601192    -0.17600
C263        C  0.90422926  0.15764950  0.83838633    -0.17600
C264        C  0.85188218  0.15744505  0.90822336    -0.17600
H265        H  0.86607531  0.02412164  0.89463878     0.15300
H266        H  0.89714296  0.02387421  0.85893454     0.15300
H267        H  0.87819601  0.20164044  0.90326076     0.15300
H268        H  0.90612791  0.20184572  0.86557958     0.15300
H269        H  0.80662867  0.09197694  0.93051562     0.13500
H270        H  0.81081162  0.13942381  0.93370317     0.13500
H271        H  0.92397278  0.09006581  0.79409112     0.13500
H272        H  0.92506821  0.13785940  0.79532962     0.13500
H273        H  0.86816688  0.09452999  0.86525561     0.26800
H274        H  0.87107812  0.13365445  0.86791045     0.26800
O275        O  0.25108053  0.55800365  0.21484856    -0.77800
C276        C  0.18479940  0.54628790  0.26424651     0.83200
O277        O  0.27439015  0.51931418  0.28428400    -0.79000
O278        O  0.20037808  0.47280373  0.27145810    -0.80400
O279        O  0.21284479  0.48222045  0.18915116    -0.80200
O280        O  0.25462443  0.52866409  0.18754653    -0.78900
Zn281      Zn  0.23466712  0.54280661  0.24344158     1.55700
O282        O  0.18366307  0.48185474  0.21634206    -0.80300
Cd283      Cd  0.24080782  0.50003925  0.20638708     1.59700
Cd284      Cd  0.25669768  0.49247507  0.26379002     1.59600
O285        O  0.26885254  0.47696418  0.20652712    -0.80300
O286        O  0.23381397  0.50837962  0.24025244    -1.90800
Cd287      Cd  0.20040365  0.49768703  0.24551868     1.59900
O288        O  0.28201227  0.47171148  0.24419257    -0.80200
O289        O  0.18051417  0.52398288  0.26133491    -0.78900
C290        C  0.27049196  0.54204207  0.28495060     0.83700
C291        C  0.25919620  0.55001528  0.19484204     0.83300
O292        O  0.20303822  0.55635938  0.25463622    -0.77800
C293        C  0.19184407  0.47587433  0.19583393     0.84100
O294        O  0.25576333  0.55193722  0.27072410    -0.77900
C295        C  0.28357963  0.46809028  0.22147839     0.84300
C296        C  0.21472318  0.46531417  0.28746277     0.84600
O297        O  0.23697332  0.47123221  0.28808974    -0.80300
O298        O  0.25935857  0.19527916  0.51903986    -0.77800
C299        C  0.19982068  0.20130287  0.46927395     0.83200
O300        O  0.28750711  0.25205388  0.46225165    -0.79000
O301        O  0.20480459  0.27164960  0.45961465    -0.80400
O302        O  0.21018695  0.26389450  0.54738014    -0.80200
O303        O  0.25692587  0.22018888  0.55046510    -0.78900
Zn304      Zn  0.24819740  0.21390065  0.49082377     1.55700
O305        O  0.18980112  0.27194752  0.51400335    -0.80300
Cd306      Cd  0.24217656  0.25036882  0.53415600     1.59700
Cd307      Cd  0.26133332  0.27138057  0.48221304     1.59600
O308        O  0.26519965  0.27791064  0.54272247    -0.80300
O309        O  0.24071238  0.24662778  0.49880896    -1.90800
Cd310      Cd  0.20700108  0.25089351  0.48922081     1.59900
O311        O  0.27850476  0.29359371  0.50839568    -0.80200
O312        O  0.19003413  0.21927505  0.47981056    -0.78900
C313        C  0.29068137  0.22917919  0.46070454     0.83700
C314        C  0.26382099  0.20033401  0.54095764     0.83300
O315        O  0.22219895  0.19717237  0.47158714    -0.77800
C316        C  0.19381785  0.27548571  0.53621703     0.84100
O317        O  0.27676206  0.21419948  0.47065112    -0.77900
C318        C  0.27756117  0.29333193  0.53138660     0.84300
C319        C  0.21723532  0.28948359  0.45266554     0.84600
O320        O  0.23880531  0.29319189  0.46018511    -0.80300
O321        O  0.50524432  0.78312513  0.79689418    -0.77800
C322        C  0.43724180  0.73675123  0.78131169     0.83200
O323        O  0.52964204  0.72108023  0.74926417    -0.79000
O324        O  0.45272805  0.73187492  0.70858413    -0.80400
O325        O  0.46384570  0.81558422  0.72552000    -0.80200
O326        O  0.50956758  0.81209327  0.76994611    -0.78900
Zn327      Zn  0.48800209  0.75701452  0.77790520     1.55700
O328        O  0.43783741  0.78595965  0.71754069    -0.80300
Cd329      Cd  0.49289879  0.79747368  0.74000603     1.59700
Cd330      Cd  0.50998035  0.74231626  0.72515798     1.59600
O331        O  0.51847118  0.80081836  0.71451396    -0.80300
O332        O  0.48653320  0.76296246  0.74422648    -1.90800
Cd333      Cd  0.45286796  0.75729298  0.73420452     1.59900
O334        O  0.53339292  0.76453652  0.70515809    -0.80200
O335        O  0.43172552  0.74200305  0.75986965    -0.78900
C336        C  0.52554652  0.71817025  0.77163352     0.83700
C337        C  0.51434632  0.80311989  0.79041487     0.83300
O338        O  0.45702084  0.74388442  0.79075472    -0.77800
C339        C  0.44490246  0.80755737  0.71504693     0.84100
O340        O  0.50976141  0.73018917  0.78279557    -0.77900
C341        C  0.53309692  0.78750383  0.70304815     0.84300
C342        C  0.46761862  0.71829009  0.69796931     0.84600
O343        O  0.49028489  0.71920252  0.70196123    -0.80300
O344        O  0.18865125  0.72785708  0.97544911    -0.77800
C345        C  0.19002947  0.77897478  0.03877006     0.83200
O346        O  0.23007329  0.80073169  0.95454365    -0.79000
O347        O  0.26428348  0.79257390  0.03331878    -0.80400
O348        O  0.26198704  0.70830754  0.02097225    -0.80200
O349        O  0.22014712  0.70333661  0.97443912    -0.78900
Zn350      Zn  0.20206886  0.75825635  0.99015480     1.55700
O351        O  0.26084086  0.73742808  0.04867380    -0.80300
Cd352      Cd  0.24640569  0.72354096  0.99119321     1.59700
Cd353      Cd  0.25455299  0.78048924  0.97520526     1.59600
O354        O  0.27263661  0.72355792  0.96639331    -0.80300
O355        O  0.23618409  0.75706264  0.99629748    -1.90800
Cd356      Cd  0.24207398  0.76380603  0.03064455     1.59900
O357        O  0.27687174  0.76079828  0.95185816    -0.80200
O358        O  0.21106064  0.77484528  0.04692320    -0.78900
C359        C  0.20738014  0.79741556  0.95254212     0.83700
C360        C  0.19867692  0.70847129  0.96831830     0.83300
O361        O  0.18357359  0.77207867  0.01784387    -0.77800
C362        C  0.26790087  0.71676217  0.04156452     0.84100
O363        O  0.19635309  0.78177411  0.96479445    -0.77900
C364        C  0.28196874  0.73833508  0.95189707     0.84300
C365        C  0.27651621  0.80594835  0.01959013     0.84600
O366        O  0.27587560  0.80378095  0.99670089    -0.80300
O367        O  0.01890578  0.49563125  0.04434711    -0.77800
C368        C  0.96722688  0.55894869  0.03797190     0.83200
O369        O  0.95282612  0.46984393  0.99713753    -0.79000
O370        O  0.96052955  0.55092059  0.96236946    -0.80400
O371        O  0.04358887  0.54092360  0.97397046    -0.80200
O372        O  0.04637539  0.49485709  0.01563273    -0.78900
Zn373      Zn  0.99002946  0.50993349  0.02800424     1.55700
O374        O  0.01429947  0.56814276  0.97213817    -0.80300
Cd375      Cd  0.02793218  0.51096834  0.98809154     1.59700
Cd376      Cd  0.97259338  0.49272523  0.97353683     1.59600
O377        O  0.03125302  0.48623406  0.96172973    -0.80300
O378        O  0.99345601  0.51526932  0.99423279    -1.90800
Cd379      Cd  0.98639005  0.54979162  0.98791928     1.59900
O380        O  0.99518002  0.47119179  0.95172352    -0.80200
O381        O  0.97150253  0.56722949  0.01718139    -0.78900
C382        C  0.95392606  0.46917582  0.02016534     0.83700
C383        C  0.03906561  0.48851617  0.03625655     0.83300
O384        O  0.97499793  0.53836267  0.04441120    -0.77800
C385        C  0.03536779  0.56104967  0.96683956     0.84100
O386        O  0.96698203  0.48362499  0.03223632    -0.77900
C387        C  0.01808740  0.47187184  0.94965960     0.84300
C388        C  0.94807484  0.53664492  0.94935912     0.84600
O389        O  0.94996101  0.51363528  0.95072036    -0.80300
O390        O  0.29774733  0.02475149  0.77627345    -0.77800
C391        C  0.29180564  0.95929590  0.72528969     0.83200
O392        O  0.24767160  0.04476333  0.71102448    -0.79000
O393        O  0.21676497  0.96415020  0.72273589    -0.80400
O394        O  0.22541523  0.97925311  0.80553338    -0.80200
O395        O  0.27310855  0.02200115  0.80754736    -0.78900
Zn396      Zn  0.28172712  0.00789220  0.74832769     1.55700
O397        O  0.22799076  0.95082614  0.77695878    -0.80300
Cd398      Cd  0.24314644  0.00805241  0.78975987     1.59700
Cd399      Cd  0.22637751  0.02325169  0.73411962     1.59600
O400        O  0.21874553  0.03504498  0.79354934    -0.80300
O401        O  0.24838534  0.00238157  0.75462609    -1.90800
Cd402      Cd  0.24286842  0.96775563  0.74801420     1.59900
O403        O  0.20458837  0.04452916  0.75720918    -0.80200
O404        O  0.27133214  0.95095702  0.73123871    -0.78900
C405        C  0.27056762  0.04395441  0.70876170     0.83700
C406        C  0.29231290  0.02997410  0.79797382     0.83300
O407        O  0.29922326  0.97962325  0.73329778    -0.77800
C408        C  0.21979618  0.95853668  0.79698656     0.84100
O409        O  0.28355644  0.03087679  0.72202600    -0.77900
C410        C  0.20468039  0.04692733  0.78015136     0.84300
C411        C  0.20340190  0.97779386  0.71041705     0.84600
O412        O  0.20420879  0.00082127  0.71230825    -0.80300
O413        O  0.67777926  0.72629839  0.48327484    -0.77800
C414        C  0.69162511  0.77803291  0.54325399     0.83200
O415        O  0.72757360  0.78500991  0.45038105    -0.79000
O416        O  0.76132696  0.78356714  0.53134867    -0.80400
O417        O  0.75068626  0.69684684  0.52359382    -0.80200
O418        O  0.70556701  0.69801995  0.47761632    -0.78900
Zn419      Zn  0.69733493  0.75436981  0.49439196     1.55700
O420        O  0.75868726  0.72877955  0.54683605    -0.80300
Cd421      Cd  0.73584571  0.71282318  0.49335667     1.59700
Cd422      Cd  0.75108052  0.76671443  0.47384710     1.59600
O423        O  0.76222405  0.70738086  0.46868502    -0.80300
O424        O  0.73095299  0.74772683  0.49749360    -1.90800
Cd425      Cd  0.73882925  0.75537791  0.53131631     1.59900
O426        O  0.77357463  0.74294960  0.45394061    -0.80200
O427        O  0.71103943  0.76920660  0.55146688    -0.78900
C428        C  0.70471147  0.78725487  0.45195571     0.83700
C429        C  0.68446196  0.70634475  0.47409637     0.83300
O430        O  0.68420436  0.77271105  0.52222665    -0.77800
C431        C  0.76199599  0.70678628  0.54116541     0.84100
O432        O  0.69272930  0.77674838  0.46805371    -0.77900
C433        C  0.77534564  0.71994498  0.45496778     0.84300
C434        C  0.77292272  0.79607690  0.51643684     0.84600
O435        O  0.77198669  0.79218486  0.49370078    -0.80300
O436        O  0.00970222  0.78276270  0.30408501    -0.77800
C437        C  0.94323968  0.73547090  0.29867490     0.83200
O438        O  0.02875426  0.71562782  0.25583512    -0.79000
O439        O  0.94836523  0.72770993  0.22480340    -0.80400
O440        O  0.96548407  0.81200623  0.23091604    -0.80200
O441        O  0.00745835  0.81318704  0.27856448    -0.78900
Zn442      Zn  0.99290689  0.75482986  0.28811659     1.55700
O443        O  0.93690366  0.78382589  0.23164429    -0.80300
Cd444      Cd  0.99350162  0.79507772  0.24890492     1.59700
Cd445      Cd  0.00771906  0.73826956  0.23342973     1.59600
O446        O  0.02078708  0.79715488  0.22509898    -0.80300
O447        O  0.98718907  0.76022012  0.25465571    -1.90800
Cd448      Cd  0.95239616  0.75502366  0.24890591     1.59900
O449        O  0.03059398  0.76012564  0.21211499    -0.80200
O450        O  0.93467360  0.74144228  0.27835802    -0.78900
C451        C  0.02850870  0.71429078  0.27880013     0.83700
C452        C  0.01492029  0.80430077  0.29823835     0.83300
O453        O  0.96422032  0.74205798  0.30527565    -0.77800
C454        C  0.94488876  0.80408673  0.22438690     0.84100
O455        O  0.01553706  0.72802247  0.29160291    -0.77900
C456        C  0.03313486  0.78313434  0.21191670     0.84300
C457        C  0.96153875  0.71461698  0.21150006     0.84600
O458        O  0.98456259  0.71638573  0.21151892    -0.80300
O459        O  0.55136347  0.03520192  0.98390180    -0.77800
C460        C  0.54119664  0.98664884  0.04875040     0.83200
O461        O  0.50502666  0.97030473  0.95862801    -0.79000
O462        O  0.46600248  0.98022820  0.03494673    -0.80400
O463        O  0.47544369  0.06371867  0.02518911    -0.80200
O464        O  0.52666368  0.06659779  0.98703001    -0.78900
Zn465      Zn  0.53491766  0.00692658  0.99921846     1.55700
O466        O  0.47336912  0.03407141  0.05176022    -0.80300
Cd467      Cd  0.49583656  0.04834356  0.99775238     1.59700
Cd468      Cd  0.48101629  0.99289966  0.97808754     1.59600
O469        O  0.47406890  0.05199802  0.96883096    -0.80300
O470        O  0.50086262  0.01310644  0.00189548    -1.90800
Cd471      Cd  0.49157259  0.00627982  0.03523986     1.59900
O472        O  0.46161016  0.01616579  0.95477742    -0.80200
O473        O  0.51948809  0.99151601  0.05426200    -0.78900
C474        C  0.52771266  0.96721775  0.96151486     0.83700
C475        C  0.54608049  0.05708266  0.97935914     0.83300
O476        O  0.55048315  0.99397950  0.02925238    -0.77800
C477        C  0.46692401  0.05472440  0.04440281     0.84100
O478        O  0.53979883  0.97983195  0.97641501    -0.77900
C479        C  0.46184218  0.03928252  0.95408824     0.84300
C480        C  0.45359538  0.96838903  0.01970075     0.84600
O481        O  0.45637281  0.97076789  0.99701534    -0.80300
C482        C  0.28400261  0.78307111  0.28496742     0.80900
N483        N  0.26539599  0.79427322  0.29597134    -0.77400
C484        C  0.25628795  0.81536208  0.28756142     0.83300
N485        N  0.26603505  0.82539755  0.26753112    -0.77400
C486        C  0.28474356  0.81438144  0.25601817     0.83400
N487        N  0.29370957  0.79339533  0.26511918    -0.79100
N488        N  0.36048747  0.69505938  0.36421969    -0.36000
N489        N  0.33145240  0.65828666  0.34003375    -0.56500
N490        N  0.35712577  0.62127571  0.36678198    -0.36000
N491        N  0.38343617  0.65813556  0.39368792    -0.56500
C492        C  0.34379030  0.70892879  0.35327535     0.27600
C493        C  0.37099911  0.70875920  0.38160471     0.27600
C494        C  0.33890489  0.60822488  0.35706546     0.27600
C495        C  0.36591459  0.60840877  0.38531606     0.27600
C496        C  0.32519241  0.67759077  0.32665457     0.36200
C497        C  0.32353975  0.63837211  0.32803401     0.36200
C498        C  0.39701175  0.67741422  0.40017959     0.36200
C499        C  0.39511576  0.63835504  0.40161565     0.36200
C500        C  0.34358976  0.73167173  0.36394666    -0.21200
C501        C  0.36077183  0.73157468  0.38180329    -0.21200
C502        C  0.33597793  0.58695469  0.36966491    -0.21200
C503        C  0.35314890  0.58700343  0.38741483    -0.21200
C504        C  0.31280113  0.66992345  0.30630456    -0.22300
C505        C  0.31180133  0.64511967  0.30714078    -0.22300
C506        C  0.41722379  0.66987127  0.41267643    -0.22300
C507        C  0.41606874  0.64506662  0.41349001    -0.22300
C508        C  0.32974945  0.70207457  0.33302351    -0.17600
C509        C  0.39063563  0.70175289  0.39619776    -0.17600
C510        C  0.38636281  0.61448989  0.39917365    -0.17600
C511        C  0.32579457  0.61428704  0.33627197    -0.17600
H512        H  0.33243663  0.74687500  0.35915643     0.15300
H513        H  0.36543184  0.74670758  0.39339389     0.15300
H514        H  0.32302376  0.57269406  0.36622064     0.15300
H515        H  0.35607079  0.57278701  0.40028008     0.15300
H516        H  0.30533070  0.68102900  0.29226629     0.13500
H517        H  0.30339889  0.63341253  0.29384872     0.13500
H518        H  0.43125775  0.68108139  0.42048372     0.13500
H519        H  0.42899463  0.63335122  0.42205060     0.13500
H520        H  0.36564037  0.67780086  0.35901052     0.26800
H521        H  0.36429549  0.63712819  0.36001660     0.26800
C522        C  0.48132963  0.96586151  0.28570465     0.80900
N523        N  0.47256412  0.98664892  0.29588800    -0.77400
C524        C  0.45318119  0.99806029  0.28592579     0.83300
N525        N  0.44271783  0.98815407  0.26582809    -0.77400
C526        C  0.45117643  0.96755627  0.25533208     0.83400
N527        N  0.47040687  0.95663746  0.26554943    -0.79100
N528        N  0.56199169  0.87143353  0.35438960    -0.36000
N529        N  0.59763707  0.84097272  0.37887811    -0.56500
N530        N  0.63632081  0.86788567  0.35698703    -0.36000
N531        N  0.60059169  0.90064652  0.33496304    -0.56500
C532        C  0.54771140  0.86016022  0.37048371     0.27600
C533        C  0.54925966  0.89007459  0.34523052     0.27600
C534        C  0.64905126  0.85461306  0.37288117     0.27600
C535        C  0.65044712  0.88665479  0.35069682     0.27600
C536        C  0.57727251  0.82993770  0.38630447     0.36200
C537        C  0.61628072  0.82719209  0.38628554     0.36200
C538        C  0.58204580  0.91052527  0.32266943     0.36200
C539        C  0.62107990  0.90980176  0.32562630     0.36200
C540        C  0.52550187  0.87161798  0.37116777    -0.21200
C541        C  0.52650998  0.89042855  0.35533779    -0.21200
C542        C  0.67162509  0.86484990  0.37630120    -0.21200
C543        C  0.67253548  0.88496134  0.36228706    -0.21200
C544        C  0.58305921  0.80916406  0.39870742    -0.22300
C545        C  0.60767838  0.80729721  0.39847943    -0.22300
C546        C  0.59084049  0.92626608  0.30558344    -0.22300
C547        C  0.61555404  0.92585120  0.30749982    -0.22300
C548        C  0.55372423  0.83948233  0.38421168    -0.17600
C549        C  0.55730420  0.90657092  0.32765240    -0.17600
C550        C  0.64463445  0.90482416  0.33402923    -0.17600
C551        C  0.64094880  0.83367917  0.38472355    -0.17600
H552        H  0.50998920  0.86690798  0.38185090     0.15300
H553        H  0.51209079  0.90299413  0.35175424     0.15300
H554        H  0.68594864  0.85870122  0.38792784     0.15300
H555        H  0.68776771  0.89708610  0.36097080     0.15300
H556        H  0.57089534  0.79690097  0.40757966     0.13500
H557        H  0.61809505  0.79332687  0.40707102     0.13500
H558        H  0.58053831  0.93712247  0.29321963     0.13500
H559        H  0.62802466  0.93629112  0.29688567     0.13500
H560        H  0.57908666  0.86613039  0.34923107     0.26800
H561        H  0.61936657  0.86399532  0.35011793     0.26800
N562        N  0.36505995  0.89145786  0.16889648    -0.36000
N563        N  0.33734682  0.86470699  0.13195203    -0.56500
N564        N  0.36607956  0.88771298  0.09482793    -0.36000
N565        N  0.39276620  0.91567670  0.13185929    -0.56500
C566        C  0.35157979  0.87719153  0.18325351     0.27600
C567        C  0.37916220  0.90567218  0.18320210     0.27600
C568        C  0.34827924  0.87800483  0.08109134     0.27600
C569        C  0.37824377  0.90335111  0.08088723     0.27600
C570        C  0.32904647  0.85312855  0.15153042     0.36200
C571        C  0.32756016  0.85358801  0.11245919     0.36200
C572        C  0.40387564  0.92575157  0.15124511     0.36200
C573        C  0.40475965  0.92305930  0.11214244     0.36200
C574        C  0.35695218  0.88270868  0.20705865    -0.21200
C575        C  0.37427679  0.90047925  0.20702326    -0.21200
C576        C  0.34955451  0.88725453  0.05805827    -0.21200
C577        C  0.36855463  0.90297127  0.05784845    -0.21200
C578        C  0.31370257  0.83457626  0.14438202    -0.22300
C579        C  0.31288852  0.83477595  0.11968474    -0.22300
C580        C  0.42303592  0.93983041  0.14366611    -0.22300
C581        C  0.42368373  0.93800272  0.11898684    -0.22300
C582        C  0.33484345  0.85898648  0.17581335    -0.17600
C583        C  0.39706829  0.92249569  0.17568645    -0.17600
C584        C  0.39798285  0.91795611  0.08799498    -0.17600
C585        C  0.33117876  0.86054555  0.08827953    -0.17600
H586        H  0.34944669  0.87454794  0.22294920     0.15300
H587        H  0.38263555  0.90831833  0.22288094     0.15300
H588        H  0.33791244  0.88325698  0.04288929     0.15300
H589        H  0.37425483  0.91327727  0.04246256     0.15300
H590        H  0.30420857  0.82204749  0.15576194     0.13500
H591        H  0.30266513  0.82244821  0.10836995     0.13500
H592        H  0.43529333  0.95038498  0.15471388     0.13500
H593        H  0.43634502  0.94705626  0.10738326     0.13500
H594        H  0.36472446  0.89126762  0.15040994     0.26800
H595        H  0.37035019  0.88336466  0.11236245     0.26800
C596        C  0.25717087  0.97332905  0.44835389     0.80900
N597        N  0.26725531  0.96457568  0.46889410    -0.77400
C598        C  0.28825626  0.97412386  0.47745452     0.83300
N599        N  0.29892787  0.99229394  0.46511022    -0.77400
C600        C  0.28928431  0.00124071  0.44460915     0.83400
N601        N  0.26840679  0.99151676  0.43632015    -0.79100
C602        C  0.44550402  0.81167652  0.47466449     0.80900
N603        N  0.46606922  0.81893661  0.46338458    -0.77400
C604        C  0.47449910  0.80674532  0.44386481     0.83300
N605        N  0.46188892  0.78737348  0.43563236    -0.77400
C606        C  0.44129308  0.77976392  0.44617666     0.83400
N607        N  0.43306837  0.79206900  0.46583896    -0.79100
N608        N  0.37634835  0.90166882  0.56007258    -0.36000
N609        N  0.34500839  0.92072307  0.59755535    -0.56500
N610        N  0.37201936  0.89310274  0.63297021    -0.36000
N611        N  0.40125967  0.87200545  0.59565291    -0.56500
C612        C  0.35875964  0.91203471  0.54688182     0.27600
C613        C  0.38717708  0.88509822  0.54576180     0.27600
C614        C  0.35392809  0.90148779  0.64677468     0.27600
C615        C  0.38369313  0.87623336  0.64585299     0.27600
C616        C  0.33811551  0.93508484  0.57933783     0.36200
C617        C  0.33567188  0.93038926  0.61786330     0.36200
C618        C  0.41393570  0.86566119  0.57601889     0.36200
C619        C  0.41274642  0.86232350  0.61463552     0.36200
C620        C  0.35863499  0.90216988  0.52386953    -0.21200
C621        C  0.37658512  0.88523418  0.52313884    -0.21200
C622        C  0.35411535  0.88989937  0.66874619    -0.21200
C623        C  0.37296827  0.87417516  0.66826708    -0.21200
C624        C  0.32395242  0.95376086  0.58807265    -0.22300
C625        C  0.32238992  0.95076421  0.61251990    -0.22300
C626        C  0.43349219  0.85162281  0.58248297    -0.22300
C627        C  0.43269047  0.84945088  0.60699601    -0.22300
C628        C  0.34316746  0.93059170  0.55478961    -0.17600
C629        C  0.40672031  0.87018128  0.55220845    -0.17600
C630        C  0.40436880  0.86335632  0.63848967    -0.17600
C631        C  0.33840665  0.92066070  0.64105349    -0.17600
H632        H  0.34676417  0.90662495  0.50911790     0.15300
H633        H  0.38123675  0.87421304  0.50767027     0.15300
H634        H  0.34228400  0.89286627  0.68389538     0.15300
H635        H  0.37829026  0.86295370  0.68312732     0.15300
H636        H  0.31554126  0.96798368  0.57788399     0.13500
H637        H  0.31259083  0.96222545  0.62492963     0.13500
H638        H  0.44660805  0.84331151  0.57070364     0.13500
H639        H  0.44501883  0.83908304  0.61784386     0.13500
H640        H  0.38136726  0.90643024  0.57746636     0.26800
H641        H  0.37694418  0.89964489  0.61638121     0.26800
N642        N  0.37267505  0.08507679  0.36437185    -0.36000
N643        N  0.35004771  0.12161390  0.39576706    -0.56500
N644        N  0.37533450  0.15934495  0.37008557    -0.36000
N645        N  0.40081531  0.12269948  0.34123035    -0.56500
C646        C  0.36122777  0.07054472  0.38015787     0.27600
C647        C  0.38793099  0.07116413  0.35121666     0.27600
C648        C  0.36554698  0.17257127  0.38806292     0.27600
C649        C  0.39245434  0.17313289  0.35994123     0.27600
C650        C  0.33763040  0.10193919  0.40292434     0.36200
C651        C  0.33870076  0.14110611  0.40522103     0.36200
C652        C  0.40852391  0.10370359  0.32783305     0.36200
C653        C  0.40956350  0.14288106  0.33090462     0.36200
C654        C  0.36899648  0.04700862  0.37666427    -0.21200
C655        C  0.38576864  0.04739319  0.35851376    -0.21200
C656        C  0.37652377  0.19505714  0.38933010    -0.21200
C657        C  0.39342636  0.19547390  0.37148825    -0.21200
C658        C  0.31853907  0.10899281  0.41734811    -0.22300
C659        C  0.31919585  0.13375017  0.41876274    -0.22300
C660        C  0.42273368  0.11187801  0.30916258    -0.22300
C661        C  0.42330290  0.13666560  0.31103852    -0.22300
C662        C  0.34344705  0.07762275  0.39719679    -0.17600
C663        C  0.40354915  0.07904137  0.33258133    -0.17600
C664        C  0.40622306  0.16678735  0.33963482    -0.17600
C665        C  0.34616986  0.16542575  0.40260364    -0.17600
H666        H  0.36322656  0.03112986  0.38624778     0.15300
H667        H  0.39532539  0.03184608  0.35154457     0.15300
H668        H  0.37257614  0.20977358  0.40163735     0.15300
H669        H  0.40494564  0.21065190  0.36739579     0.15300
H670        H  0.30540498  0.09750560  0.42590812     0.13500
H671        H  0.30672518  0.14502780  0.42865527     0.13500
H672        H  0.43171168  0.10111237  0.29557005     0.13500
H673        H  0.43290578  0.14871868  0.29924076     0.13500
H674        H  0.36958663  0.10321797  0.36219363     0.26800
H675        H  0.36963785  0.14260883  0.36404386     0.26800
N676        N  0.17161802  0.88983980  0.37181233    -0.36000
N677        N  0.13524940  0.91446498  0.40116221    -0.56500
N678        N  0.09855181  0.88561469  0.37792940    -0.36000
N679        N  0.13514403  0.85823747  0.35139643    -0.56500
C680        C  0.18551720  0.90219920  0.38770705     0.27600
C681        C  0.18527998  0.87191326  0.36236584     0.27600
C682        C  0.08565814  0.89541643  0.39609248     0.27600
C683        C  0.08555148  0.86700740  0.36898859     0.27600
C684        C  0.15423320  0.92916911  0.40544430     0.36200
C685        C  0.11556919  0.92598735  0.40969816     0.36200
C686        C  0.15392322  0.85186733  0.33743283     0.36200
C687        C  0.11517758  0.85090614  0.33957526     0.36200
C688        C  0.20832118  0.89204794  0.38832061    -0.21200
C689        C  0.20817663  0.87298030  0.37227879    -0.21200
C690        C  0.06415493  0.88294021  0.39860110    -0.21200
C691        C  0.06405042  0.86502484  0.38140450    -0.21200
C692        C  0.14659721  0.95008454  0.41701950    -0.22300
C693        C  0.12207540  0.94804190  0.41973794    -0.22300
C694        C  0.14591376  0.84018067  0.31674896    -0.22300
C695        C  0.12124959  0.83953573  0.31812737    -0.22300
C696        C  0.17852640  0.92306736  0.40081025    -0.17600
C697        C  0.17817260  0.85579652  0.34372896    -0.17600
C698        C  0.09169335  0.85302041  0.34870687    -0.17600
C699        C  0.09201676  0.91626943  0.40939954    -0.17600
H700        H  0.22357526  0.89788433  0.39907066     0.15300
H701        H  0.22327145  0.86135243  0.36819038     0.15300
H702        H  0.04986205  0.88657314  0.41128659     0.15300
H703        H  0.04965177  0.85217094  0.37821931     0.15300
H704        H  0.15758515  0.96512113  0.42311694     0.13500
H705        H  0.11040722  0.96119549  0.42821945     0.13500
H706        H  0.15668852  0.83286762  0.30224866     0.13500
H707        H  0.10918302  0.83146841  0.30498455     0.13500
H708        H  0.15430908  0.89446702  0.36658857     0.26800
H709        H  0.11446687  0.89215825  0.37080177     0.26800
O710        O  0.77146996  0.95595855  0.23123707    -0.77800
C711        C  0.72572747  0.95705257  0.29703526     0.83200
O712        O  0.70768577  0.00397527  0.21118549    -0.79000
O713        O  0.71408961  0.03006339  0.29387130    -0.80400
O714        O  0.80007666  0.02561352  0.28233672    -0.80200
O715        O  0.80046874  0.98361363  0.23253313    -0.78900
Zn716      Zn  0.74431357  0.97093728  0.24844479     1.55700
O717        O  0.76943037  0.02903888  0.30771735    -0.80300
Cd718      Cd  0.78397837  0.01158732  0.25153980     1.59700
Cd719      Cd  0.72840878  0.02573444  0.23525719     1.59600
O720        O  0.78722964  0.04037643  0.22952263    -0.80300
O721        O  0.74945613  0.00440289  0.25594769    -1.90800
Cd722      Cd  0.74310039  0.00871297  0.29062150     1.59900
O723        O  0.75051356  0.04978721  0.21618663    -0.80200
O724        O  0.73153234  0.97726886  0.30667924    -0.78900
C725        C  0.70601792  0.98093593  0.21096532     0.83700
C726        C  0.79192914  0.96354842  0.22468196     0.83300
O727        O  0.73152722  0.95181752  0.27556654    -0.77800
C728        C  0.79067744  0.03462801  0.30134213     0.84100
O729        O  0.71861299  0.96799949  0.22468876    -0.77900
C730        C  0.77331009  0.05317043  0.21686277     0.84300
C731        C  0.70133081  0.04338713  0.28061399     0.84600
O732        O  0.70469916  0.04510692  0.25794593    -0.80300
O733        O  0.80201776  0.24304268  0.96889228    -0.77800
C734        C  0.79422357  0.31103806  0.01467305     0.83200
O735        O  0.74700076  0.22217650  0.02828638    -0.79000
O736        O  0.72200856  0.30599361  0.01649118    -0.80400
O737        O  0.73246198  0.28686601  0.93341741    -0.80200
O738        O  0.77883884  0.24501401  0.93641786    -0.78900
Zn739      Zn  0.78407320  0.25961616  0.99573336     1.55700
O740        O  0.73012002  0.31665750  0.96053382    -0.80300
Cd741      Cd  0.74869298  0.25955518  0.95185931     1.59700
Cd742      Cd  0.72791694  0.24639570  0.00576724     1.59600
O743        O  0.72444033  0.23286482  0.94770535    -0.80300
O744        O  0.75179856  0.26640936  0.98660872    -1.90800
Cd745      Cd  0.74672203  0.30182066  0.99031940     1.59900
O746        O  0.70576131  0.22597903  0.98234808    -0.80200
O747        O  0.77585346  0.32055512  0.00488209    -0.78900
C748        C  0.76970349  0.22131940  0.03219514     0.83700
C749        C  0.79751294  0.23730538  0.94706666     0.83300
O750        O  0.79939847  0.28886641  0.01106295    -0.77800
C751        C  0.72475982  0.30745539  0.94009787     0.84100
O752        O  0.78427332  0.23510271  0.02139485    -0.77900
C753        C  0.70846341  0.22214348  0.95983626     0.84300
C754        C  0.70779235  0.29315612  0.02876321     0.84600
O755        O  0.70674724  0.27013563  0.02671019    -0.80300
C756        C  0.29272106  0.27669437  0.79957287     0.80900
N757        N  0.27353743  0.28776751  0.81028577    -0.77400
C758        C  0.26411285  0.30830257  0.80126957     0.83300
N759        N  0.27417283  0.31764705  0.78122757    -0.77400
C760        C  0.29330000  0.30715066  0.77020037     0.83400
N761        N  0.30269270  0.28657508  0.77952720    -0.79100
C762        C  0.48311101  0.30463043  0.95774339     0.80900
N763        N  0.47191808  0.31675373  0.97593100    -0.77400
C764        C  0.45080031  0.30886214  0.98523377     0.83300
N765        N  0.44082675  0.28836421  0.97606068    -0.77400
C766        C  0.45173344  0.27573535  0.95791790     0.83400
N767        N  0.47285798  0.28409295  0.94873796    -0.79100
C768        C  0.44054472  0.46391946  0.76226452     0.80900
N769        N  0.42998397  0.48346060  0.77284456    -0.77400
C770        C  0.43860381  0.49308755  0.79363294     0.83300
N771        N  0.45823946  0.48268816  0.80398295    -0.77400
C772        C  0.46933323  0.46326045  0.79361152     0.83400
N773        N  0.46026602  0.45388049  0.77273187    -0.79100
C774        C  0.26185608  0.47017319  0.95688757     0.80900
N775        N  0.27236382  0.49047123  0.94824528    -0.77400
C776        C  0.29268237  0.49995240  0.95838656     0.83300
N777        N  0.30252738  0.48878130  0.97762744    -0.77400
C778        C  0.29234216  0.46842319  0.98676932     0.83400
N779        N  0.27198716  0.45925479  0.97630637    -0.79100
N780        N  0.36392444  0.58440662  0.87548633    -0.36000
N781        N  0.33805618  0.62418327  0.89893006    -0.56500
N782        N  0.36144948  0.65770057  0.86670885    -0.36000
N783        N  0.38484931  0.61784728  0.84115069    -0.56500
C784        C  0.34727800  0.57207487  0.88820582     0.27600
C785        C  0.37356369  0.56880955  0.85927750     0.27600
C786        C  0.34657808  0.67299629  0.87842224     0.27600
C787        C  0.37014131  0.66948765  0.84750005     0.27600
C788        C  0.33090578  0.60598909  0.91324498     0.36200
C789        C  0.33176482  0.64502043  0.91008406     0.36200
C790        C  0.39737747  0.59784915  0.83495895     0.36200
C791        C  0.39547554  0.63658028  0.82992100     0.36200
C792        C  0.34656338  0.54830448  0.88008722    -0.21200
C793        C  0.36315638  0.54624322  0.86193235    -0.21200
C794        C  0.34583153  0.69484040  0.86641319    -0.21200
C795        C  0.36055522  0.69256904  0.84687034    -0.21200
C796        C  0.31963103  0.61526430  0.93348572    -0.22300
C797        C  0.32010692  0.63998692  0.93145521    -0.22300
C798        C  0.41566185  0.60384947  0.81919824    -0.22300
C799        C  0.41442579  0.62838034  0.81597913    -0.22300
C800        C  0.33352726  0.58113367  0.90776859    -0.17600
C801        C  0.39194196  0.57411064  0.84253557    -0.17600
C802        C  0.38822845  0.66096737  0.83187012    -0.17600
C803        C  0.33491914  0.66839448  0.90045376    -0.17600
H804        H  0.33528700  0.53385014  0.88662374     0.15300
H805        H  0.36703449  0.52995967  0.85176502     0.15300
H806        H  0.33629045  0.71110558  0.87141566     0.15300
H807        H  0.36434787  0.70668473  0.83413264     0.15300
H808        H  0.31168654  0.60526634  0.94806681     0.13500
H809        H  0.31239611  0.65274172  0.94409643     0.13500
H810        H  0.42860268  0.59182209  0.81093583     0.13500
H811        H  0.42623576  0.63898804  0.80480270     0.13500
H812        H  0.36939595  0.60208654  0.87854438     0.26800
H813        H  0.36682851  0.64088148  0.87252500     0.26800
N814        N  0.55965618  0.38615901  0.87393429    -0.36000
N815        N  0.59269586  0.41039978  0.84235880    -0.56500
N816        N  0.63298205  0.38343288  0.86355716    -0.36000
N817        N  0.59970837  0.35614942  0.89229985    -0.56500
C818        C  0.54408213  0.39621781  0.85818674     0.27600
C819        C  0.54792012  0.36791445  0.88475630     0.27600
C820        C  0.64357094  0.39338770  0.84423168     0.27600
C821        C  0.64718092  0.36503090  0.87075397     0.27600
C822        C  0.57277588  0.42395784  0.83858512     0.36200
C823        C  0.61157276  0.42286631  0.83338132     0.36200
C824        C  0.58205080  0.35060157  0.90799135     0.36200
C825        C  0.62071188  0.34913184  0.90252468     0.36200
C826        C  0.52225783  0.38405454  0.85887548    -0.21200
C827        C  0.52465718  0.36620865  0.87570878    -0.21200
C828        C  0.66458705  0.38098982  0.83887149    -0.21200
C829        C  0.66692181  0.36315095  0.85571593    -0.21200
C830        C  0.57901528  0.44501318  0.82691350    -0.22300
C831        C  0.60354211  0.44434012  0.82363748    -0.22300
C832        C  0.59183543  0.33970716  0.92807712    -0.22300
C833        C  0.61632721  0.33893256  0.92468161    -0.22300
C834        C  0.54886933  0.41671580  0.84404207    -0.17600
C835        C  0.55711666  0.35402161  0.90383547    -0.17600
C836        C  0.64363334  0.35118031  0.89162579    -0.17600
C837        C  0.63569711  0.41442729  0.83247396    -0.17600
H838        H  0.50620345  0.38777611  0.84850478     0.15300
H839        H  0.51076664  0.35358163  0.88090575     0.15300
H840        H  0.67718655  0.38471109  0.82458308     0.15300
H841        H  0.68161305  0.35043671  0.85695503     0.15300
H842        H  0.56712187  0.45931656  0.82124954     0.13500
H843        H  0.61421603  0.45805035  0.81493066     0.13500
H844        H  0.58232280  0.33310091  0.94362338     0.13500
H845        H  0.62939389  0.33170709  0.93711945     0.13500
H846        H  0.57681177  0.39233836  0.87835406     0.26800
H847        H  0.61792264  0.39009729  0.87240550     0.26800
N848        N  0.35857994  0.39065633  0.67755040    -0.36000
N849        N  0.32910968  0.36322383  0.64365465    -0.56500
N850        N  0.35417761  0.38722640  0.60455700    -0.36000
N851        N  0.38097721  0.41730297  0.63837125    -0.56500
C852        C  0.34280725  0.37992807  0.69262232     0.27600
C853        C  0.36927475  0.40902342  0.68982212     0.27600
C854        C  0.33621750  0.37604480  0.59242782     0.27600
C855        C  0.36376508  0.40362082  0.58961907     0.27600
C856        C  0.32428240  0.35066663  0.66372168     0.36200
C857        C  0.32175145  0.34932070  0.62495627     0.36200
C858        C  0.39420424  0.42623897  0.65681336     0.36200
C859        C  0.39259829  0.42329558  0.61801791     0.36200
C860        C  0.34370645  0.39144687  0.71483780    -0.21200
C861        C  0.36035708  0.40978337  0.71307750    -0.21200
C862        C  0.33435534  0.38538294  0.56948458    -0.21200
C863        C  0.35183694  0.40273951  0.56766018    -0.21200
C864        C  0.31349515  0.32880176  0.65777350    -0.22300
C865        C  0.31183761  0.32797522  0.63314254    -0.22300
C866        C  0.41415972  0.43841346  0.64813452    -0.22300
C867        C  0.41311777  0.43655998  0.62347590    -0.22300
C868        C  0.32862577  0.35918501  0.68732777    -0.17600
C869        C  0.38807862  0.42405281  0.68130210    -0.17600
C870        C  0.38412985  0.41802361  0.59461205    -0.17600
C871        C  0.32298089  0.35614407  0.60066828    -0.17600
H872        H  0.33351129  0.38700227  0.73072966     0.15300
H873        H  0.36549099  0.42216049  0.72739566     0.15300
H874        H  0.32205820  0.37985152  0.55531910     0.15300
H875        H  0.35556339  0.41317775  0.55177637     0.15300
H876        H  0.30739620  0.31494491  0.66989984     0.13500
H877        H  0.30418460  0.31338588  0.62248465     0.13500
H878        H  0.42795142  0.44771575  0.65846619     0.13500
H879        H  0.42586991  0.44421574  0.61100638     0.13500
H880        H  0.36295337  0.38477771  0.66040542     0.26800
H881        H  0.36075806  0.38260400  0.62130829     0.26800
N882        N  0.37481906  0.39358289  0.07172701    -0.36000
N883        N  0.40355985  0.36837622  0.10741015    -0.56500
N884        N  0.37496267  0.39119471  0.14545460    -0.36000
N885        N  0.34910209  0.41952337  0.10982726    -0.56500
C886        C  0.39218458  0.38392540  0.05753338     0.27600
C887        C  0.36331826  0.41070456  0.05884807     0.27600
C888        C  0.39233506  0.38049271  0.15854984     0.27600
C889        C  0.36470773  0.40814077  0.15970442     0.27600
C890        C  0.41133493  0.35668524  0.08743713     0.36200
C891        C  0.41061069  0.35498490  0.12632432     0.36200
C892        C  0.33581580  0.42650238  0.09075887     0.36200
C893        C  0.33649536  0.42558953  0.12970798     0.36200
C894        C  0.39148358  0.39486436  0.03525971    -0.21200
C895        C  0.37332342  0.41171171  0.03608015    -0.21200
C896        C  0.39300530  0.39055041  0.18147076    -0.21200
C897        C  0.37558771  0.40806369  0.18218426    -0.21200
C898        C  0.42367538  0.33598045  0.09374617    -0.22300
C899        C  0.42331227  0.33496185  0.11836696    -0.22300
C900        C  0.31466673  0.43720465  0.09855435    -0.22300
C901        C  0.31508929  0.43660537  0.12326745    -0.22300
C902        C  0.40782183  0.36463595  0.06359255    -0.17600
C903        C  0.34321406  0.42455704  0.06651832    -0.17600
C904        C  0.34479193  0.42258864  0.15354834    -0.17600
C905        C  0.40681265  0.36111813  0.15075639    -0.17600
H906        H  0.40284960  0.39103851  0.01994008     0.15300
H907        H  0.36801849  0.42332692  0.02148825     0.15300
H908        H  0.40475003  0.38570184  0.19619511     0.15300
H909        H  0.37125658  0.41929408  0.19760117     0.15300
H910        H  0.43200113  0.32288421  0.08187167     0.13500
H911        H  0.43140680  0.32101206  0.12917163     0.13500
H912        H  0.30055229  0.44487016  0.08759825     0.13500
H913        H  0.30136707  0.44370455  0.13513261     0.13500
H914        H  0.37012427  0.38785858  0.08872697     0.26800
H915        H  0.36947463  0.38614025  0.12830303     0.26800
N916        N  0.36729020  0.19045673  0.88186762    -0.36000
N917        N  0.39884298  0.15378369  0.90259804    -0.56500
N918        N  0.37374461  0.11687580  0.87459834    -0.36000
N919        N  0.34508945  0.15373324  0.85077992    -0.56500
C920        C  0.38382002  0.20438290  0.89336266     0.27600
C921        C  0.35641412  0.20442637  0.86527762     0.27600
C922        C  0.39287392  0.10414618  0.88262400     0.27600
C923        C  0.36370041  0.10394844  0.85637833     0.27600
C924        C  0.40402809  0.17259457  0.91743445     0.36200
C925        C  0.40843232  0.13390219  0.91276617     0.36200
C926        C  0.33120330  0.17285396  0.84511235     0.36200
C927        C  0.33359710  0.13386285  0.84220561     0.36200
C928        C  0.38335265  0.22751695  0.88407318    -0.21200
C929        C  0.36610467  0.22753068  0.86632839    -0.21200
C930        C  0.39484773  0.08287677  0.86940210    -0.21200
C931        C  0.37637060  0.08267928  0.85298592    -0.21200
C932        C  0.41721406  0.16469059  0.93700383    -0.22300
C933        C  0.41985153  0.14015931  0.93413675    -0.22300
C934        C  0.31097750  0.16514515  0.83252676    -0.22300
C935        C  0.31239187  0.14040055  0.83086320    -0.22300
C936        C  0.39870590  0.19704379  0.91259900    -0.17600
C937        C  0.33723275  0.19725708  0.84996986    -0.17600
C938        C  0.34266922  0.11007883  0.84346560    -0.17600
C939        C  0.40781802  0.11040242  0.90242538    -0.17600
H940        H  0.39426564  0.24284972  0.88953204     0.15300
H941        H  0.36116375  0.24289241  0.85554193     0.15300
H942        H  0.40817078  0.06883260  0.87143116     0.15300
H943        H  0.37272083  0.06849034  0.83994036     0.15300
H944        H  0.42430829  0.17550722  0.95173188     0.13500
H945        H  0.42922493  0.12833171  0.94633464     0.13500
H946        H  0.29670364  0.17620324  0.82531731     0.13500
H947        H  0.29944353  0.12861625  0.82206780     0.13500
H948        H  0.36281202  0.17280872  0.88605711     0.26800
H949        H  0.36698888  0.13270055  0.88201735     0.26800
N950        N  0.17662136  0.39376284  0.87605803    -0.36000
N951        N  0.13756592  0.41855214  0.90131885    -0.56500
N952        N  0.10314497  0.39352862  0.87011713    -0.36000
N953        N  0.14200399  0.36653272  0.84715990    -0.56500
C954        C  0.18907808  0.40473152  0.89403788     0.27600
C955        C  0.19147060  0.37760580  0.86534392     0.27600
C956        C  0.08836662  0.40320486  0.88685677     0.27600
C957        C  0.09071942  0.37561763  0.85895796     0.27600
C958        C  0.15635244  0.43093817  0.91079227     0.36200
C959        C  0.11744859  0.43062613  0.90768137     0.36200
C960        C  0.16232734  0.35950634  0.83587973     0.36200
C961        C  0.12342070  0.35867415  0.83343902     0.36200
C962        C  0.21228478  0.39553793  0.89463445    -0.21200
C963        C  0.21379034  0.37848745  0.87656608    -0.21200
C964        C  0.06617725  0.39172411  0.88590563    -0.21200
C965        C  0.06771265  0.37423839  0.86846085    -0.21200
C966        C  0.14810754  0.45090111  0.92354512    -0.22300
C967        C  0.12340099  0.45068811  0.92158055    -0.22300
C968        C  0.15658559  0.34682271  0.81500012    -0.22300
C969        C  0.13190745  0.34647387  0.81335950    -0.22300
C970        C  0.18072084  0.42384227  0.90898812    -0.17600
C971        C  0.18589767  0.36293505  0.84499497    -0.17600
C972        C  0.09895701  0.36107854  0.83967305    -0.17600
C973        C  0.09379986  0.42276246  0.90237618    -0.17600
H974        H  0.22679952  0.40079535  0.90663163     0.15300
H975        H  0.22968262  0.36818805  0.87202105     0.15300
H976        H  0.05045374  0.39542278  0.89673274     0.15300
H977        H  0.05341736  0.36187468  0.86337942     0.15300
H978        H  0.15875672  0.46407665  0.93342686     0.13500
H979        H  0.11121739  0.46362327  0.92965254     0.13500
H980        H  0.16886637  0.33849416  0.80236938     0.13500
H981        H  0.12141644  0.33789345  0.79922531     0.13500
H982        H  0.15932515  0.39808905  0.87053073     0.26800
H983        H  0.12025976  0.39965356  0.86570784     0.26800
C984        C  0.69371018  0.73948991  0.20714533     0.80900
N985        N  0.68231410  0.72749346  0.22490560    -0.77400
C986        C  0.69120299  0.70634846  0.23357763     0.83300
N987        N  0.71190516  0.69709791  0.22427853    -0.77400
C988        C  0.72370145  0.70889738  0.20651257     0.83400
N989        N  0.71434781  0.72990099  0.19807966    -0.79100
N990        N  0.60359054  0.63069293  0.31462145    -0.36000
N991        N  0.62884608  0.65803632  0.35186214    -0.56500
N992        N  0.60066798  0.63275447  0.38791964    -0.36000
N993        N  0.57287594  0.60817293  0.35081060    -0.56500
C994        C  0.61565763  0.64685219  0.30105854     0.27600
C995        C  0.58650481  0.62030463  0.30049868     0.27600
C996        C  0.61166725  0.64975757  0.40158651     0.27600
C997        C  0.58238500  0.62377866  0.40103304     0.27600
C998        C  0.64239748  0.66440091  0.33288811     0.36200
C999        C  0.64129091  0.66473843  0.37170388     0.36200
C1000       C  0.56582036  0.59523131  0.33133187     0.36200
C1001       C  0.56462447  0.59629895  0.37020262     0.36200
C1002       C  0.60635312  0.64640995  0.27789736    -0.21200
C1003       C  0.58801541  0.62965786  0.27753941    -0.21200
C1004       C  0.60025176  0.65151164  0.42370932    -0.21200
C1005       C  0.58176408  0.63508998  0.42333182    -0.21200
C1006       C  0.66345174  0.67552672  0.34069104    -0.22300
C1007       C  0.66268048  0.67585603  0.36534688    -0.22300
C1008       C  0.55262942  0.57523755  0.33836314    -0.22300
C1009       C  0.55189868  0.57590366  0.36304298    -0.22300
C1010       C  0.63547631  0.66127711  0.30864402    -0.17600
C1011       C  0.57046240  0.60164011  0.30728193    -0.17600
C1012       C  0.56752812  0.60429855  0.39419647    -0.17600
C1013       C  0.63287163  0.66223895  0.39540342    -0.17600
H1014       H  0.61220106  0.65702179  0.26277301     0.15300
H1015       H  0.57703406  0.62487676  0.26209452     0.15300
H1016       H  0.60496634  0.66299907  0.43885118     0.15300
H1017       H  0.56954361  0.63155344  0.43798794     0.15300
H1018       H  0.67777768  0.68279137  0.32977716     0.13500
H1019       H  0.67620536  0.68356517  0.37720858     0.13500
H1020       H  0.54432775  0.56164068  0.32691645     0.13500
H1021       H  0.54288221  0.56299082  0.37438954     0.13500
H1022       H  0.60759410  0.62601823  0.33212661     0.26800
H1023       H  0.60652123  0.62632350  0.37140926     0.26800
C1024       C  0.69000458  0.56036740  0.01094594     0.80900
N1025       N  0.68125426  0.53959763  0.02036727    -0.77400
C1026       C  0.69244063  0.52879622  0.03924565     0.83300
N1027       N  0.71256985  0.53919045  0.04879326    -0.77400
C1028       C  0.72161023  0.56012708  0.03975420     0.83400
N1029       N  0.71016459  0.57048736  0.02090340    -0.79100
C1030       C  0.50832333  0.71128639  0.04873025     0.80900
N1031       N  0.51717863  0.70231891  0.02762592    -0.77400
C1032       C  0.53612324  0.71289902  0.01655003     0.83300
N1033       N  0.54641017  0.73268121  0.02707457    -0.77400
C1034       C  0.53793279  0.74217633  0.04802949     0.83400
N1035       N  0.51880903  0.73134280  0.05883825    -0.79100
C1036       C  0.53449427  0.51630905  0.19585279     0.80900
N1037       N  0.51418366  0.52551383  0.18558913    -0.77400
C1038       C  0.50299329  0.54485117  0.19586418     0.83300
N1039       N  0.51245480  0.55475268  0.21622758    -0.77400
C1040       C  0.53262999  0.54608144  0.22661936     0.83400
N1041       N  0.54354894  0.52683211  0.21628841    -0.79100
N1042       N  0.42006768  0.62878179  0.12165528    -0.36000
N1043       N  0.38462097  0.65701987  0.09574722    -0.56500
N1044       N  0.34658647  0.63004681  0.11935083    -0.36000
N1045       N  0.38183454  0.60409976  0.14748840    -0.56500
C1046       C  0.43444664  0.64565487  0.11177739     0.27600
C1047       C  0.43290596  0.61788557  0.13909618     0.27600
C1048       C  0.33391587  0.64808432  0.10930756     0.27600
C1049       C  0.33257849  0.62049656  0.13663771     0.27600
C1050       C  0.40456265  0.66453735  0.08424101     0.36200
C1051       C  0.36564854  0.66513137  0.08300444     0.36200
C1052       C  0.40076086  0.59084329  0.15469639     0.36200
C1053       C  0.36191567  0.59162932  0.15353513     0.36200
C1054       C  0.45688035  0.64518966  0.12280073    -0.21200
C1055       C  0.45591244  0.62764524  0.14001291    -0.21200
C1056       C  0.31155978  0.64988317  0.12018779    -0.21200
C1057       C  0.31071393  0.63243412  0.13743205    -0.21200
C1058       C  0.39825620  0.67790532  0.06426948    -0.22300
C1059       C  0.37352889  0.67825196  0.06347071    -0.22300
C1060       C  0.39284303  0.56987764  0.16559203    -0.22300
C1061       C  0.36812968  0.57037764  0.16482377    -0.22300
C1062       C  0.42831793  0.66065817  0.09233262    -0.17600
C1063       C  0.42495509  0.59832072  0.15310665    -0.17600
C1064       C  0.33831462  0.60026487  0.15061105    -0.17600
C1065       C  0.34138233  0.66213832  0.08974144    -0.17600
H1066       H  0.47244584  0.65618479  0.11875343     0.15300
H1067       H  0.47060087  0.62251542  0.15168778     0.15300
H1068       H  0.29722255  0.66234918  0.11601427     0.15300
H1069       H  0.29560667  0.62880486  0.14908007     0.15300
H1070       H  0.41020692  0.68662996  0.05171402     0.13500
H1071       H  0.36260902  0.68732450  0.05021825     0.13500
H1072       H  0.40370103  0.55590670  0.17362138     0.13500
H1073       H  0.35612738  0.55692033  0.17212450     0.13500
H1074       H  0.40294934  0.62401425  0.11590320     0.26800
H1075       H  0.36313215  0.62360280  0.11362659     0.26800
N1076       N  0.61775718  0.43685701  0.11795543    -0.36000
N1077       N  0.59794146  0.39663814  0.14667551    -0.56500
N1078       N  0.62348105  0.36323289  0.11664909    -0.36000
N1079       N  0.64604416  0.40344980  0.09045057    -0.56500
C1080       C  0.60853799  0.44884018  0.13707233     0.27600
C1081       C  0.63241957  0.45238185  0.10626340     0.27600
C1082       C  0.61514933  0.34824321  0.13374321     0.27600
C1083       C  0.64191658  0.35187753  0.10575418     0.27600
C1084       C  0.58473555  0.41518700  0.15521469     0.36200
C1085       C  0.58643550  0.37616377  0.15313057     0.36200
C1086       C  0.65030587  0.42334884  0.07725227     0.36200
C1087       C  0.65451190  0.38449027  0.07768240     0.36200
C1088       C  0.61716075  0.47238834  0.13732533    -0.21200
C1089       C  0.63228524  0.47458034  0.11796750    -0.21200
C1090       C  0.62825119  0.32702667  0.13356436    -0.21200
C1091       C  0.64526299  0.32934760  0.11594615    -0.21200
C1092       C  0.56489012  0.40644939  0.16751635    -0.22300
C1093       C  0.56592852  0.38166961  0.16608835    -0.22300
C1094       C  0.66183912  0.41702359  0.05607215    -0.22300
C1095       C  0.66455437  0.39236582  0.05636311    -0.22300
C1096       C  0.59098823  0.43982390  0.15307323    -0.17600
C1097       C  0.64542341  0.44724079  0.08497821    -0.17600
C1098       C  0.65455801  0.36037211  0.08564201    -0.06400
C1099       C  0.59514436  0.35266852  0.14854811    -0.17600
H1100       H  0.61279866  0.48666125  0.14998442     0.15300
H1101       H  0.64196885  0.49074677  0.11302158     0.15300
H1102       H  0.62573029  0.31146161  0.14487571     0.15300
H1103       H  0.65836374  0.31578959  0.11095095     0.15300
H1104       H  0.55117864  0.41682844  0.17670005     0.13500
H1105       H  0.55328167  0.36916613  0.17396083     0.13500
H1106       H  0.66787385  0.42894200  0.04202672     0.13500
H1107       H  0.67310837  0.38149847  0.04256990     0.13500
H1108       H  0.61307682  0.41952403  0.11248566     0.26800
H1109       H  0.61600309  0.37951303  0.11151566     0.26800
N1110       N  0.61415016  0.64242604  0.92462645    -0.36000
N1111       N  0.58525390  0.66658701  0.88785472    -0.56500
N1112       N  0.61174530  0.64049533  0.85095005    -0.36000
N1113       N  0.63847092  0.61407722  0.88764351    -0.56500
C1114       C  0.59775489  0.65381964  0.93863464     0.27600
C1115       C  0.62574792  0.62617489  0.93850585     0.27600
C1116       C  0.59404791  0.65033968  0.83760536     0.27600
C1117       C  0.62175282  0.62285706  0.83745635     0.27600
C1118       C  0.57757605  0.67910255  0.90735015     0.36200
C1119       C  0.57662365  0.67809172  0.86832502     0.36200
C1120       C  0.65097768  0.60618816  0.90691139     0.36200
C1121       C  0.64982001  0.60553074  0.86786064     0.36200
C1122       C  0.59924087  0.64486137  0.96180913    -0.21200
C1123       C  0.61678307  0.62748961  0.96170690    -0.21200
C1124       C  0.59267975  0.63877239  0.81542333    -0.21200
C1125       C  0.61023258  0.62153427  0.81525243    -0.21200
C1126       C  0.56349375  0.69835487  0.90016094    -0.22300
C1127       C  0.56298267  0.69777822  0.87543593    -0.22300
C1128       C  0.67008197  0.59202761  0.89931535    -0.22300
C1129       C  0.66938183  0.59166296  0.87456911    -0.22300
C1130       C  0.58214458  0.67277303  0.93154671    -0.17600
C1131       C  0.64480135  0.61074756  0.93124392    -0.17600
C1132       C  0.64200924  0.60901349  0.84390430    -0.17600
C1133       C  0.58001616  0.67042648  0.84422332    -0.17600
H1134       H  0.58899169  0.65038118  0.97740647     0.15300
H1135       H  0.62241528  0.61718650  0.97713643     0.15300
H1136       H  0.58057411  0.64261689  0.80067761     0.15300
H1137       H  0.61418610  0.60971026  0.80019747     0.15300
H1138       H  0.55451891  0.71145922  0.91153635     0.13500
H1139       H  0.55354329  0.71032382  0.86401718     0.13500
H1140       H  0.68313413  0.58289013  0.91043692     0.13500
H1141       H  0.68171932  0.58211836  0.86286401     0.13500
H1142       H  0.61797855  0.64637846  0.90693322     0.26800
H1143       H  0.61784718  0.64662326  0.86754478     0.26800
N1144       N  0.80991921  0.63437109  0.12200043    -0.36000
N1145       N  0.84687935  0.60595083  0.09744916    -0.56500
N1146       N  0.88379356  0.62999416  0.12719245    -0.36000
N1147       N  0.84671359  0.65546874  0.15434626    -0.56500
C1148       C  0.79597056  0.61833144  0.10968628     0.27600
C1149       C  0.79581069  0.64560131  0.13842135     0.27600
C1150       C  0.89771540  0.61461193  0.11444899     0.27600
C1151       C  0.89760273  0.63972510  0.14487120     0.27600
C1152       C  0.82764971  0.59905295  0.08407092     0.36200
C1153       C  0.86666926  0.59823383  0.08563584     0.36200
C1154       C  0.82744140  0.66835408  0.16184553     0.36200
C1155       C  0.86637134  0.66523574  0.16524051     0.36200
C1156       C  0.77256802  0.61972950  0.11817190    -0.21200
C1157       C  0.77245771  0.63687710  0.13621173    -0.21200
C1158       C  0.92083843  0.61480566  0.12397436    -0.21200
C1159       C  0.92075333  0.63058026  0.14313393    -0.21200
C1160       C  0.83523726  0.58662668  0.06373108    -0.22300
C1161       C  0.85996068  0.58614975  0.06469176    -0.22300
C1162       C  0.83488111  0.68614186  0.17800048    -0.22300
C1163       C  0.85946996  0.68414904  0.18015740    -0.22300
C1164       C  0.80332281  0.60301976  0.09040947    -0.17600
C1165       C  0.80310420  0.66378253  0.15515574    -0.17600
C1166       C  0.89050273  0.65748742  0.16188991    -0.17600
C1167       C  0.89067319  0.60106906  0.09386195    -0.17600
H1168       H  0.75710560  0.60942552  0.11203577     0.15300
H1169       H  0.75689996  0.64218122  0.14663135     0.15300
H1170       H  0.93627387  0.60467640  0.11775202     0.15300
H1171       H  0.93609736  0.63489821  0.15443606     0.15300
H1172       H  0.82412743  0.57866134  0.04971611     0.13500
H1173       H  0.87164359  0.57767495  0.05158379     0.13500
H1174       H  0.82376549  0.69924042  0.18727504     0.13500
H1175       H  0.87096147  0.69544697  0.19131887     0.13500
H1176       H  0.82793604  0.63832399  0.11870920     0.26800
H1177       H  0.86604960  0.63440590  0.12325464     0.26800
N1178       N  0.62252093  0.82819771  0.12528875    -0.36000
N1179       N  0.59385515  0.86469658  0.10123674    -0.56500
N1180       N  0.61977451  0.90230116  0.12859285    -0.36000
N1181       N  0.64581273  0.86571227  0.15509231    -0.56500
C1182       C  0.60574897  0.81427607  0.11400794     0.27600
C1183       C  0.63243960  0.81477504  0.14293039     0.27600
C1184       C  0.60207887  0.91547983  0.11846596     0.27600
C1185       C  0.62981353  0.91609564  0.14620432     0.27600
C1186       C  0.58781914  0.84533240  0.08741589     0.36200
C1187       C  0.58576596  0.88446005  0.08968895     0.36200
C1188       C  0.65851634  0.84630982  0.16237028     0.36200
C1189       C  0.65745734  0.88552330  0.16367235     0.36200
C1190       C  0.60502967  0.79176036  0.12459529    -0.21200
C1191       C  0.62190058  0.79202273  0.14271180    -0.21200
C1192       C  0.60107706  0.93799685  0.12961103    -0.21200
C1193       C  0.61862777  0.93841327  0.14701246    -0.21200
C1194       C  0.57559990  0.85283748  0.06707222    -0.22300
C1195       C  0.57431140  0.87762624  0.06850523    -0.22300
C1196       C  0.67814959  0.85381980  0.17598471    -0.22300
C1197       C  0.67753607  0.87866180  0.17672796    -0.22300
C1198       C  0.59174871  0.82092997  0.09379790    -0.17600
C1199       C  0.65165202  0.82193591  0.15834807    -0.17600
C1200       C  0.64947609  0.90961461  0.16092772    -0.17600
C1201       C  0.58771625  0.90847670  0.09850368    -0.17600
H1202       H  0.59367634  0.77658098  0.11965352     0.15300
H1203       H  0.62602552  0.77699525  0.15425392     0.15300
H1204       H  0.58902208  0.95271711  0.12553737     0.15300
H1205       H  0.62265641  0.95346351  0.15893810     0.15300
H1206       H  0.56822321  0.84161064  0.05279537     0.13500
H1207       H  0.56579839  0.88926975  0.05552095     0.13500
H1208       H  0.69139338  0.84256878  0.18467855     0.13500
H1209       H  0.69021718  0.89031411  0.18608392     0.13500
H1210       H  0.62792731  0.84535484  0.12030060     0.26800
H1211       H  0.62552734  0.88542958  0.12289069     0.26800
O1212       O  0.70523909  0.49762240  0.68318225    -0.77800
C1213       C  0.76123670  0.55820978  0.69372757     0.83200
O1214       O  0.76955000  0.47354232  0.73413335    -0.79000
O1215       O  0.75577059  0.55228999  0.77043951    -0.80400
O1216       O  0.67730272  0.53963944  0.75697559    -0.80200
O1217       O  0.67363109  0.50305177  0.70689908    -0.78900
Zn1218     Zn  0.73389386  0.51182257  0.70045631     1.55700
O1219       O  0.70419489  0.56930182  0.75401684    -0.80300
Cd1220     Cd  0.69198160  0.51201617  0.73771108     1.59700
Cd1221     Cd  0.74569900  0.49418761  0.75532180     1.59600
O1222       O  0.68600319  0.48282979  0.75843008    -0.80300
O1223       O  0.72707341  0.51678811  0.73372852    -1.90800
Cd1224     Cd  0.73422074  0.55102149  0.74114358     1.59900
O1225       O  0.72145564  0.47128815  0.77324244    -0.80200
O1226       O  0.75596316  0.56602923  0.71471370    -0.78900
C1227       C  0.77211241  0.47408186  0.71132563     0.83700
C1228       C  0.68297816  0.49452282  0.68783911     0.83300
O1229       O  0.75072524  0.53972448  0.68470828    -0.77800
C1230       C  0.68452791  0.56077298  0.76235381     0.84100
O1231       O  0.75924365  0.48733831  0.69808666    -0.77900
C1232       C  0.69855859  0.46915652  0.77155368     0.84300
C1233       C  0.76673117  0.53758242  0.78384744     0.84600
O1234       O  0.76556622  0.51470201  0.78068977    -0.80300
O1235       O  0.04438153  0.03283476  0.48364036    -0.77800
C1236       C  0.03397313  0.98455700  0.54928988     0.83200
O1237       O  0.99727671  0.97182239  0.45835406    -0.79000
O1238       O  0.95611459  0.98166185  0.53659240    -0.80400
O1239       O  0.97766375  0.06441065  0.53182797    -0.80200
O1240       O  0.01715751  0.06201864  0.48233512    -0.78900
Zn1241     Zn  0.02722958  0.00672042  0.50117952     1.55700
O1242       O  0.97031138  0.03405275  0.55660732    -0.80300
Cd1243     Cd  0.98876986  0.04715823  0.50067744     1.59700
Cd1244     Cd  0.97382859  0.99333429  0.47955994     1.59600
O1245       O  0.96159103  0.05232965  0.47703727    -0.80300
O1246       O  0.99330001  0.01237664  0.50435957    -1.90800
Cd1247     Cd  0.98407878  0.00509290  0.53764923     1.59900
O1248       O  0.95571150  0.01769067  0.45687546    -0.80200
O1249       O  0.01184125  0.98761782  0.55445319    -0.78900
C1250       C  0.01984832  0.96893028  0.46178928     0.83700
C1251       C  0.03708170  0.05289546  0.47561172     0.83300
O1252       O  0.04343663  0.99421268  0.53092127    -0.77800
C1253       C  0.96841396  0.05616352  0.55105820     0.84100
O1254       O  0.03114898  0.98051914  0.47802500    -0.77900
C1255       C  0.95208467  0.04030981  0.45990998     0.84300
C1256       C  0.94424341  0.96996293  0.52079884     0.84600
O1257       O  0.94860508  0.97150183  0.49823732    -0.80300
C1258       C  0.53621494  0.05376999  0.73542165     0.80900
N1259       N  0.54794444  0.03448046  0.72564170    -0.77400
C1260       C  0.53990856  0.02406152  0.70484375     0.83300
N1261       N  0.52003017  0.03310319  0.69383861    -0.77400
C1262       C  0.50859198  0.05275812  0.70304702     0.83400
N1263       N  0.51674961  0.06290024  0.72379651    -0.79100
C1264       C  0.72428322  0.05690651  0.54320199     0.80900
N1265       N  0.71398565  0.03670845  0.55242470    -0.77400
C1266       C  0.69325647  0.02730655  0.54314814     0.83300
N1267       N  0.68271757  0.03868611  0.52445383    -0.77400
C1268       C  0.69258058  0.05907338  0.51506776     0.83400
N1269       N  0.71338889  0.06814372  0.52450934    -0.79100
C1270       C  0.53033812  0.23599934  0.54117287     0.80900
N1271       N  0.51182316  0.22353725  0.55134269    -0.77400
C1272       C  0.50276741  0.20325166  0.54041783     0.83300
N1273       N  0.51263356  0.19574545  0.51928872    -0.77400
C1274       C  0.53113822  0.20787900  0.50886383     0.83400
N1275       N  0.53987032  0.22789096  0.52004799    -0.79100
N1276       N  0.61122015  0.13014745  0.42478866    -0.36000
N1277       N  0.63682481  0.10015975  0.39036935    -0.56500
N1278       N  0.60855853  0.12181968  0.35195432    -0.36000
N1279       N  0.58060046  0.14913775  0.38627119    -0.56500
C1280       C  0.62257625  0.11467746  0.43972392     0.27600
C1281       C  0.59379157  0.14135332  0.43762497     0.27600
C1282       C  0.62009701  0.10409688  0.33996545     0.27600
C1283       C  0.59000873  0.12879709  0.33794805     0.27600
C1284       C  0.65007233  0.09532874  0.41006500     0.36200
C1285       C  0.64985032  0.09271808  0.37132318     0.36200
C1286       C  0.57385021  0.16393254  0.40443394     0.36200
C1287       C  0.57222030  0.15899612  0.36577835     0.36200
C1288       C  0.61251562  0.11645834  0.46243152    -0.21200
C1289       C  0.59450585  0.13335176  0.46115166    -0.21200
C1290       C  0.60883401  0.09974416  0.31804442    -0.21200
C1291       C  0.58980144  0.11538955  0.31677269    -0.21200
C1292       C  0.67155501  0.08443047  0.40356901    -0.22300
C1293       C  0.67144077  0.08281990  0.37891120    -0.22300
C1294       C  0.56073470  0.18312736  0.39548644    -0.22300
C1295       C  0.55978871  0.18004040  0.37092395    -0.22300
C1296       C  0.64242899  0.09972032  0.43381247    -0.17600
C1297       C  0.57788451  0.15932405  0.42904189    -0.17600
C1298       C  0.57488368  0.14859413  0.34266656    -0.17600
C1299       C  0.64167163  0.09323322  0.34735518    -0.17600
H1300       H  0.61764719  0.10664395  0.47834850     0.15300
H1301       H  0.58318873  0.13902773  0.47593693     0.15300
H1302       H  0.61408402  0.08698755  0.30417143     0.15300
H1303       H  0.57754456  0.11710473  0.30173636     0.15300
H1304       H  0.68574737  0.07824390  0.41534512     0.13500
H1305       H  0.68544903  0.07497775  0.36786712     0.13500
H1306       H  0.55251948  0.19769151  0.40561364     0.13500
H1307       H  0.55072326  0.19172358  0.35835190     0.13500
H1308       H  0.61576685  0.13378606  0.40716315     0.26800
H1309       H  0.61435326  0.13000965  0.36778430     0.26800
N1310       N  0.42016528  0.11883038  0.61730976    -0.36000
N1311       N  0.38323542  0.14105518  0.58779450    -0.56500
N1312       N  0.34697057  0.12016974  0.61904269    -0.36000
N1313       N  0.38376141  0.09510791  0.64607877    -0.56500
C1314       C  0.43358131  0.12731602  0.59900700     0.27600
C1315       C  0.43383333  0.10285950  0.62944077     0.27600
C1316       C  0.33324113  0.12854958  0.60103401     0.27600
C1317       C  0.33344561  0.10407244  0.63095616     0.27600
C1318       C  0.40261451  0.15290462  0.57937906     0.36200
C1319       C  0.36382820  0.15366155  0.58063577     0.36200
C1320       C  0.40334528  0.08973547  0.65933193     0.36200
C1321       C  0.36445067  0.09045188  0.65990329     0.36200
C1322       C  0.45619156  0.11685742  0.59964736    -0.21200
C1323       C  0.45631177  0.10131919  0.61875432    -0.21200
C1324       C  0.31062342  0.11791532  0.60161782    -0.21200
C1325       C  0.31078812  0.10231325  0.62049451    -0.21200
C1326       C  0.39546631  0.17281665  0.56627528    -0.22300
C1327       C  0.37078435  0.17330771  0.56711126    -0.22300
C1328       C  0.39645848  0.08148736  0.68172025    -0.22300
C1329       C  0.37171330  0.08183463  0.68203487    -0.22300
C1330       C  0.42662554  0.14561386  0.58293791    -0.17600
C1331       C  0.42721270  0.09095120  0.65086599    -0.17600
C1332       C  0.34042292  0.09218346  0.65197451    -0.17600
C1333       C  0.33990242  0.14697752  0.58533596    -0.17600
H1334       H  0.47115477  0.12028038  0.58775320     0.15300
H1335       H  0.47140690  0.09042883  0.62438599     0.15300
H1336       H  0.29547102  0.12127982  0.58985811     0.15300
H1337       H  0.29577225  0.09127086  0.62611918     0.15300
H1338       H  0.40682918  0.18565244  0.55712480     0.13500
H1339       H  0.35928168  0.18652310  0.55870247     0.13500
H1340       H  0.40802996  0.07556099  0.69616922     0.13500
H1341       H  0.36036042  0.07617179  0.69671044     0.13500
H1342       H  0.40328059  0.12491146  0.62224633     0.26800
H1343       H  0.36391185  0.12641779  0.62392896     0.26800
C1344       C  0.68927150  0.21862660  0.72788924     0.80900
N1345       N  0.67994747  0.23900103  0.71820765    -0.77400
C1346       C  0.68999418  0.24976365  0.69872887     0.83300
N1347       N  0.70989679  0.23959377  0.68861048    -0.77400
C1348       C  0.71961912  0.21916692  0.69805034     0.83400
N1349       N  0.70908825  0.20885165  0.71756731    -0.79100
N1350       N  0.60746258  0.32896288  0.61918937    -0.36000
N1351       N  0.58138899  0.36217168  0.58758270    -0.56500
N1352       N  0.60341494  0.40279409  0.61323463    -0.36000
N1353       N  0.63038719  0.36957517  0.64412275    -0.56500
C1354       C  0.59468855  0.31267848  0.60601910     0.27600
C1355       C  0.61988743  0.31673016  0.63613164     0.27600
C1356       C  0.59302889  0.41447702  0.59464172     0.27600
C1357       C  0.61952437  0.41821232  0.62337432     0.27600
C1358       C  0.57218900  0.34117657  0.57897236     0.36200
C1359       C  0.57017386  0.38020618  0.57582696     0.36200
C1360       C  0.63936380  0.35175556  0.65787649     0.36200
C1361       C  0.63861780  0.39064305  0.65343444     0.36200
C1362       C  0.59916858  0.28971882  0.61468687    -0.21200
C1363       C  0.61509007  0.29225130  0.63348805    -0.21200
C1364       C  0.60216052  0.43772361  0.59339922    -0.21200
C1365       C  0.61891713  0.44004011  0.61136560    -0.21200
C1366       C  0.55511364  0.34597876  0.56139004    -0.22300
C1367       C  0.55372667  0.37065207  0.55954219    -0.22300
C1368       C  0.65342630  0.36159109  0.67615581    -0.22300
C1369       C  0.65282004  0.38623025  0.67344727    -0.22300
C1370       C  0.57874861  0.31769172  0.58665438    -0.17600
C1371       C  0.63553204  0.32671311  0.65395894    -0.17600
C1372       C  0.63458080  0.41367919  0.64342171    -0.17600
C1373       C  0.57538120  0.40511548  0.57869454    -0.17600
H1374       H  0.59163073  0.27279246  0.60828583     0.15300
H1375       H  0.62210116  0.27763912  0.64416493     0.15300
H1376       H  0.59756033  0.45152776  0.58057822     0.15300
H1377       H  0.62961777  0.45603118  0.61498639     0.15300
H1378       H  0.54469884  0.33308620  0.55091458     0.13500
H1379       H  0.54223627  0.38040679  0.54729460     0.13500
H1380       H  0.66309235  0.35202200  0.69000699     0.13500
H1381       H  0.66206347  0.39935381  0.68472198     0.13500
H1382       H  0.60786243  0.34730823  0.61651717     0.26800
H1383       H  0.59910450  0.38571101  0.61922823     0.26800
N1384       N  0.61902614  0.93908001  0.62492851    -0.36000
N1385       N  0.64366338  0.90304474  0.59598864    -0.56500
N1386       N  0.61996878  0.86529161  0.62379439    -0.36000
N1387       N  0.59285447  0.90129662  0.65019662    -0.56500
C1388       C  0.62861734  0.95297681  0.60746943     0.27600
C1389       C  0.60119371  0.95192297  0.63556140     0.27600
C1390       C  0.62932973  0.85229831  0.60551464     0.27600
C1391       C  0.60284459  0.85140684  0.63391126     0.27600
C1392       C  0.65589852  0.92270713  0.58865143     0.36200
C1393       C  0.65591910  0.88365405  0.58782219     0.36200
C1394       C  0.58653820  0.92056623  0.66374322     0.36200
C1395       C  0.58728866  0.88153795  0.66304017     0.36200
C1396       C  0.61688938  0.97501571  0.60715321    -0.21200
C1397       C  0.59953203  0.97430314  0.62473685    -0.21200
C1398       C  0.61833056  0.82977197  0.60426170    -0.21200
C1399       C  0.60157805  0.82923420  0.62219457    -0.21200
C1400       C  0.67580667  0.91576821  0.57533028    -0.22300
C1401       C  0.67584368  0.89094414  0.57484816    -0.22300
C1402       C  0.57707808  0.91302498  0.68544318    -0.22300
C1403       C  0.57733734  0.88819703  0.68488671    -0.22300
C1404       C  0.64840472  0.94675758  0.59260998    -0.17600
C1405       C  0.58749862  0.94465741  0.65581552    -0.17600
C1406       C  0.58913821  0.85771541  0.65417689    -0.17600
C1407       C  0.64852073  0.85953572  0.59080741    -0.17600
H1408       H  0.62049272  0.99011662  0.59552146     0.15300
H1409       H  0.58726136  0.98878217  0.62923303     0.15300
H1410       H  0.62203853  0.81514423  0.59177834     0.15300
H1411       H  0.58991011  0.81414595  0.62622126     0.15300
H1412       H  0.68881373  0.92736627  0.56672398     0.13500
H1413       H  0.68886035  0.87957039  0.56580134     0.13500
H1414       H  0.57022582  0.92422179  0.69991765     0.13500
H1415       H  0.57071040  0.87640190  0.69877121     0.13500
H1416       H  0.62532405  0.92238678  0.63031508     0.26800
H1417       H  0.62591227  0.88206754  0.62981416     0.26800
N1418       N  0.80797636  0.13486907  0.62505742    -0.36000
N1419       N  0.84656367  0.11130236  0.59817011    -0.56500
N1420       N  0.88172099  0.13876061  0.62626415    -0.36000
N1421       N  0.84317178  0.16493845  0.65041453    -0.56500
C1422       C  0.79544820  0.12360396  0.60732226     0.27600
C1423       C  0.79359113  0.15225383  0.63432482     0.27600
C1424       C  0.89612104  0.12901829  0.60924438     0.27600
C1425       C  0.89444653  0.15648072  0.63731745     0.27600
C1426       C  0.82787637  0.09730750  0.59091815     0.36200
C1427       C  0.86685218  0.09991073  0.59103140     0.36200
C1428       C  0.82305220  0.17223402  0.66197422     0.36200
C1429       C  0.86208087  0.17369376  0.66321136     0.36200
C1430       C  0.77284421  0.13397883  0.60526149    -0.21200
C1431       C  0.77166971  0.15205719  0.62231247    -0.21200
C1432       C  0.91831737  0.14053986  0.60965785    -0.21200
C1433       C  0.91722208  0.15794622  0.62727487    -0.21200
C1434       C  0.83631610  0.07708495  0.57876614    -0.22300
C1435       C  0.86103400  0.07875334  0.57880869    -0.22300
C1436       C  0.82919929  0.18611814  0.68195556    -0.22300
C1437       C  0.85392463  0.18704375  0.68273391    -0.22300
C1438       C  0.80331964  0.10334381  0.59385867    -0.17600
C1439       C  0.79921971  0.16746471  0.65412376    -0.17600
C1440       C  0.88658579  0.17069751  0.65693182    -0.17600
C1441       C  0.89047052  0.10892552  0.59449301    -0.17600
H1442       H  0.75857930  0.12891396  0.59288671     0.15300
H1443       H  0.75633201  0.16361116  0.62561503     0.15300
H1444       H  0.93384694  0.13667897  0.59860799     0.15300
H1445       H  0.93169984  0.17014112  0.63225190     0.15300
H1446       H  0.82576272  0.06275069  0.57054554     0.13500
H1447       H  0.87330068  0.06594600  0.57066404     0.13500
H1448       H  0.81713771  0.19469827  0.69464106     0.13500
H1449       H  0.86466848  0.19648162  0.69612278     0.13500
H1450       H  0.82474875  0.12987056  0.63152215     0.26800
H1451       H  0.86478995  0.13269172  0.63110747     0.26800
N1452       N  0.60759900  0.14192024  0.81667012    -0.36000
N1453       N  0.58991637  0.11017981  0.85559272    -0.56500
N1454       N  0.61958757  0.13633076  0.88922400    -0.36000
N1455       N  0.63987805  0.16538301  0.85016363    -0.56500
C1456       C  0.59647778  0.12404588  0.80418386     0.27600
C1457       C  0.62261411  0.15329025  0.80127178     0.27600
C1458       C  0.61210750  0.11788128  0.90313027     0.27600
C1459       C  0.63864575  0.14664474  0.90044732     0.27600
C1460       C  0.57473865  0.10370151  0.83775323     0.36200
C1461       C  0.58079184  0.10088737  0.87597910     0.36200
C1462       C  0.64379451  0.17954029  0.83090278     0.36200
C1463       C  0.64999174  0.17678005  0.86926100     0.36200
C1464       C  0.60416885  0.12432921  0.78046027    -0.21200
C1465       C  0.62062445  0.14278323  0.77863661    -0.21200
C1466       C  0.62637489  0.11668015  0.92353687    -0.21200
C1467       C  0.64314413  0.13478824  0.92183814    -0.21200
C1468       C  0.55597936  0.08992135  0.84673801    -0.22300
C1469       C  0.55976845  0.08824622  0.87107059    -0.22300
C1470       C  0.65669769  0.19991123  0.83771740    -0.22300
C1471       C  0.66044926  0.19827920  0.86207449    -0.22300
C1472       C  0.57881418  0.10810394  0.81323408    -0.17600
C1473       C  0.63769791  0.17320130  0.80698425    -0.17600
C1474       C  0.65130440  0.16731283  0.89274590    -0.17600
C1475       C  0.59193174  0.10291125  0.89870225    -0.17600
H1476       H  0.59848902  0.11248339  0.76590296     0.15300
H1477       H  0.63007837  0.14783003  0.76247303     0.15300
H1478       H  0.62481288  0.10408323  0.93818265     0.15300
H1479       H  0.65702067  0.13884478  0.93498032     0.15300
H1480       H  0.54128440  0.08170682  0.83674543     0.13500
H1481       H  0.54855423  0.07858560  0.88361287     0.13500
H1482       H  0.66294525  0.21429470  0.82628738     0.13500
H1483       H  0.67016848  0.21122791  0.87314165     0.13500
H1484       H  0.60421015  0.14663830  0.83442939     0.26800
H1485       H  0.61136416  0.14256652  0.87376138     0.26800
C1486       C  0.00978925  0.71171836  0.54012619     0.80900
N1487       N  0.01884322  0.73139292  0.55205233    -0.77400
C1488       C  0.04003927  0.74147774  0.54486580     0.83300
N1489       N  0.05205444  0.73173088  0.52580938    -0.77400
C1490       C  0.04331757  0.71228147  0.51375143     0.83400
N1491       N  0.02223055  0.70237746  0.52114797    -0.79100
N1492       N  0.12310118  0.63525220  0.42511759    -0.36000
N1493       N  0.14349173  0.60491217  0.38720612    -0.56500
N1494       N  0.11450825  0.63045627  0.35208147    -0.36000
N1495       N  0.09184058  0.65839738  0.38994299    -0.56500
C1496       C  0.13457046  0.61839550  0.43834835     0.27600
C1497       C  0.10695713  0.64639215  0.43966636     0.27600
C1498       C  0.12289036  0.61211932  0.33846531     0.27600
C1499       C  0.09576196  0.63999437  0.34007298     0.27600
C1500       C  0.15753720  0.59764253  0.40561598     0.36200
C1501       C  0.15324681  0.59570741  0.36687152     0.36200
C1502       C  0.08714389  0.67244199  0.40928134     0.36200
C1503       C  0.08335841  0.67027134  0.37066185     0.36200
C1504       C  0.12595190  0.61926236  0.46172932    -0.21200
C1505       C  0.10850260  0.63678238  0.46251076    -0.21200
C1506       C  0.10932778  0.60996595  0.31753642    -0.21200
C1507       C  0.09215716  0.62760942  0.31856773    -0.21200
C1508       C  0.17601108  0.58322199  0.39698125    -0.22300
C1509       C  0.17336165  0.58210544  0.37238993    -0.22300
C1510       C  0.07550620  0.69333921  0.40230179    -0.22300
C1511       C  0.07309511  0.69195494  0.37773501    -0.22300
C1512       C  0.15298999  0.60261424  0.43018023    -0.17600
C1513       C  0.09147648  0.66562400  0.43323067    -0.17600
C1514       C  0.08311005  0.66077153  0.34708834    -0.17600
C1515       C  0.14347750  0.59840071  0.34356372    -0.17600
H1516       H  0.13154001  0.60836117  0.47675362     0.15300
H1517       H  0.09815073  0.64187642  0.47819309     0.15300
H1518       H  0.11177402  0.59726791  0.30283472     0.15300
H1519       H  0.07884759  0.63120288  0.30482471     0.15300
H1520       H  0.18988325  0.57436917  0.40732212     0.13500
H1521       H  0.18474717  0.57220112  0.36002468     0.13500
H1522       H  0.06908315  0.70783857  0.41376061     0.13500
H1523       H  0.06438672  0.70512238  0.36643958     0.13500
H1524       H  0.12682052  0.63962742  0.40745269     0.26800
H1525       H  0.12232150  0.63722943  0.36771117     0.26800
C1526       C  0.23254280  0.71219461  0.69595141     0.80900
N1527       N  0.22241372  0.73212491  0.68623766    -0.77400
C1528       C  0.20141663  0.74092988  0.69513232     0.83300
N1529       N  0.19057044  0.72951224  0.71386901    -0.77400
C1530       C  0.20036095  0.70937923  0.72370046     0.83400
N1531       N  0.22132250  0.70095531  0.71448511    -0.79100
C1532       C  0.19564108  0.52234831  0.54060440     0.80900
N1533       N  0.21545750  0.53294177  0.55064355    -0.77400
C1534       C  0.22634124  0.55210906  0.54017350     0.83300
N1535       N  0.21671514  0.56107689  0.51970812    -0.77400
C1536       C  0.19658060  0.55108608  0.50950347     0.83400
N1537       N  0.18616766  0.53161948  0.52008391    -0.79100
N1538       N  0.31606240  0.63025959  0.61979635    -0.36000
N1539       N  0.35492072  0.65823861  0.64304270    -0.56500
N1540       N  0.38983832  0.62796729  0.61883684    -0.36000
N1541       N  0.35088880  0.60230474  0.59320543    -0.56500
C1542       C  0.30407689  0.64936202  0.62898501     0.27600
C1543       C  0.30187953  0.62030085  0.60252148     0.27600
C1544       C  0.40453070  0.64526385  0.62815715     0.27600
C1545       C  0.40255334  0.61571668  0.60207269     0.27600
C1546       C  0.33592744  0.66631624  0.65588770     0.36200
C1547       C  0.37497280  0.66558430  0.65495109     0.36200
C1548       C  0.33070791  0.59028713  0.58630055     0.36200
C1549       C  0.36979101  0.58882920  0.58587128     0.36200
C1550       C  0.28212006  0.65175449  0.61729530    -0.21200
C1551       C  0.28075809  0.63340507  0.60052914    -0.21200
C1552       C  0.42689589  0.64385901  0.61734796    -0.21200
C1553       C  0.42571653  0.62520505  0.60099536    -0.21200
C1554       C  0.34393973  0.67914537  0.67591565    -0.22300
C1555       C  0.36869900  0.67879332  0.67524087    -0.22300
C1556       C  0.33682788  0.56921328  0.57421337    -0.22300
C1557       C  0.36155147  0.56841801  0.57370423    -0.22300
C1558       C  0.31153971  0.66338973  0.64898394    -0.17600
C1559       C  0.30691427  0.59888310  0.58954381    -0.17600
C1560       C  0.39433263  0.59543758  0.58861654    -0.17600
C1561       C  0.39881306  0.66143247  0.64707396    -0.17600
H1562       H  0.26834418  0.66510279  0.62078346     0.15300
H1563       H  0.26576552  0.62987941  0.58850976     0.15300
H1564       H  0.44260189  0.65489469  0.62107793     0.15300
H1565       H  0.44051709  0.61920576  0.58989389     0.15300
H1566       H  0.33310071  0.68802222  0.68947739     0.13500
H1567       H  0.38070089  0.68726077  0.68819151     0.13500
H1568       H  0.32477394  0.55594767  0.56629401     0.13500
H1569       H  0.37219948  0.55446363  0.56516159     0.13500
H1570       H  0.33211578  0.62335135  0.62636209     0.26800
H1571       H  0.37259265  0.62378729  0.62448278     0.26800
C1572       C  0.03697950  0.54962978  0.72634021     0.80900
N1573       N  0.04638955  0.52866217  0.71746541    -0.77400
C1574       C  0.03664114  0.51749403  0.69772421     0.83300
N1575       N  0.01740748  0.52784735  0.68679367    -0.77400
C1576       C  0.00774235  0.54886758  0.69526086     0.83400
N1577       N  0.01770663  0.55956725  0.71500084    -0.79100
N1578       N  0.11943259  0.43410165  0.62208508    -0.36000
N1579       N  0.14544218  0.39946612  0.59289985    -0.56500
N1580       N  0.12021182  0.36021058  0.61742802    -0.36000
N1581       N  0.09176221  0.39483580  0.64390976    -0.56500
C1582       C  0.12946114  0.44883816  0.60564464     0.27600
C1583       C  0.10091096  0.44622242  0.63217738     0.27600
C1584       C  0.13130739  0.34787594  0.59966295     0.27600
C1585       C  0.10288594  0.34558568  0.62620433     0.27600
C1586       C  0.15770500  0.41960695  0.58681005     0.36200
C1587       C  0.15817095  0.38049538  0.58434712     0.36200
C1588       C  0.08403191  0.41351126  0.65753123     0.36200
C1589       C  0.08440789  0.37454287  0.65495224     0.36200
C1590       C  0.11718407  0.47058433  0.60533049    -0.21200
C1591       C  0.09922648  0.46897195  0.62214389    -0.21200
C1592       C  0.12108364  0.32504021  0.59733223    -0.21200
C1593       C  0.10315095  0.32362457  0.61408792    -0.21200
C1594       C  0.17813420  0.41336798  0.57393927    -0.22300
C1595       C  0.17836818  0.38858174  0.57230152    -0.22300
C1596       C  0.07150466  0.40509957  0.67725925    -0.22300
C1597       C  0.07175130  0.38033026  0.67562468    -0.22300
C1598       C  0.14994595  0.44354104  0.59157563    -0.17600
C1599       C  0.08648813  0.43797697  0.65129857    -0.17600
C1600       C  0.08763099  0.35099113  0.64566432    -0.17600
C1601       C  0.15124142  0.35603274  0.58632555    -0.17600
H1602       H  0.12086737  0.48608557  0.59424815     0.15300
H1603       H  0.08647883  0.48304432  0.62659674     0.15300
H1604       H  0.12609053  0.31072994  0.58495603     0.15300
H1605       H  0.09171504  0.30811153  0.61710698     0.15300
H1606       H  0.19144252  0.42539772  0.56643312     0.13500
H1607       H  0.19184648  0.37774775  0.56328687     0.13500
H1608       H  0.06275531  0.41570602  0.69112469     0.13500
H1609       H  0.06327393  0.36801798  0.68799070     0.13500
H1610       H  0.12577751  0.41733494  0.62727049     0.26800
H1611       H  0.12520758  0.37706865  0.62403323     0.26800
N1612       N  0.92370778  0.62273530  0.60882157    -0.36000
N1613       N  0.88659711  0.59773250  0.63583871    -0.56500
N1614       N  0.85011099  0.62429107  0.60980353    -0.36000
N1615       N  0.88702834  0.65138558  0.58472505    -0.56500
C1616       C  0.93712666  0.61191997  0.62600792     0.27600
C1617       C  0.93736251  0.64046304  0.59915831     0.27600
C1618       C  0.83711752  0.61536584  0.62812392     0.27600
C1619       C  0.83710874  0.64240640  0.60039491     0.27600
C1620       C  0.90574123  0.58493039  0.64341643     0.36200
C1621       C  0.86683320  0.58636904  0.64417686     0.36200
C1622       C  0.90653285  0.65912488  0.57252249     0.36200
C1623       C  0.86744595  0.65907419  0.57250752     0.36200
C1624       C  0.95966588  0.62281494  0.62697258    -0.21200
C1625       C  0.95966656  0.64094957  0.61036531    -0.21200
C1626       C  0.81571172  0.62799495  0.63043816    -0.21200
C1627       C  0.81565190  0.64501964  0.61284407    -0.21200
C1628       C  0.89803682  0.56557412  0.65705193    -0.22300
C1629       C  0.87334485  0.56634992  0.65730473    -0.22300
C1630       C  0.89924986  0.67218315  0.55265640    -0.22300
C1631       C  0.87446922  0.67214574  0.55266380    -0.22300
C1632       C  0.92999912  0.59190828  0.64019924    -0.17600
C1633       C  0.93076628  0.65553770  0.57976504    -0.17600
C1634       C  0.84340229  0.65571846  0.57999444    -0.17600
C1635       C  0.84318075  0.59506552  0.64177472    -0.17600
H1636       H  0.97479613  0.61821972  0.63827496     0.15300
H1637       H  0.97461884  0.65290958  0.60672537     0.15300
H1638       H  0.80141383  0.62500829  0.64323756     0.15300
H1639       H  0.80130096  0.65772708  0.60951566     0.15300
H1640       H  0.90899514  0.55263679  0.66648650     0.13500
H1641       H  0.86158480  0.55406072  0.66669845     0.13500
H1642       H  0.91059144  0.68087133  0.53954080     0.13500
H1643       H  0.86294549  0.68088361  0.53969378     0.13500
H1644       H  0.90670551  0.61742775  0.60307797     0.26800
H1645       H  0.86604813  0.61734537  0.60296773     0.26800
N1646       N  0.12115771  0.82816234  0.62419935    -0.36000
N1647       N  0.14576476  0.86620918  0.65074562    -0.56500
N1648       N  0.11806398  0.90178818  0.62422499    -0.36000
N1649       N  0.09083622  0.86357289  0.60028547    -0.56500
C1650       C  0.13154598  0.81555708  0.64211868     0.27600
C1651       C  0.10372865  0.81399480  0.61456758     0.27600
C1652       C  0.12904603  0.91607793  0.64076058     0.27600
C1653       C  0.09972265  0.91462379  0.61486293     0.27600
C1654       C  0.15915855  0.84728582  0.65779930     0.36200
C1655       C  0.15820871  0.88624145  0.65696063     0.36200
C1656       C  0.08497712  0.84372344  0.58720477     0.36200
C1657       C  0.08237712  0.88273745  0.58807847     0.36200
C1658       C  0.12068093  0.79308519  0.64378525    -0.21200
C1659       C  0.10301792  0.79214556  0.62646842    -0.21200
C1660       C  0.11790625  0.93843482  0.64156229    -0.21200
C1661       C  0.09927463  0.93744810  0.62539576    -0.21200
C1662       C  0.18019574  0.85525021  0.66874209    -0.22300
C1663       C  0.17955571  0.88003904  0.66830244    -0.22300
C1664       C  0.07247182  0.85029809  0.56668793    -0.22300
C1665       C  0.07082862  0.87505759  0.56725433    -0.22300
C1666       C  0.15170568  0.82305728  0.65582684    -0.17600
C1667       C  0.08943292  0.81973512  0.59442382    -0.17600
C1668       C  0.08433377  0.90697884  0.59596755    -0.17600
C1669       C  0.14949899  0.90994799  0.65440749    -0.17600
H1670       H  0.12517047  0.77876526  0.65607549     0.15300
H1671       H  0.09119477  0.77696820  0.62284558     0.15300
H1672       H  0.12269716  0.95392802  0.65260635     0.15300
H1673       H  0.08694981  0.95203368  0.62165802     0.15300
H1674       H  0.19426142  0.84436770  0.67659273     0.13500
H1675       H  0.19304386  0.89209931  0.67581167     0.13500
H1676       H  0.06519955  0.83849933  0.55282135     0.13500
H1677       H  0.06216381  0.88613081  0.55388025     0.13500
H1678       H  0.12671653  0.84475140  0.61771645     0.26800
H1679       H  0.12362849  0.88478540  0.61874169     0.26800
N1680       N  0.11693095  0.63296572  0.80867842    -0.36000
N1681       N  0.08962016  0.60946332  0.84606986    -0.56500
N1682       N  0.12022270  0.63266451  0.88177031    -0.36000
N1683       N  0.14972815  0.65373435  0.84454957    -0.56500
C1684       C  0.10479343  0.61616850  0.79559822     0.27600
C1685       C  0.13477235  0.64149688  0.79469323     0.27600
C1686       C  0.10769488  0.61720036  0.89555085     0.27600
C1687       C  0.13978172  0.63956149  0.89461413     0.27600
C1688       C  0.07609404  0.60277853  0.82700575     0.36200
C1689       C  0.07670472  0.60419459  0.86575612     0.36200
C1690       C  0.15664831  0.66642127  0.82520860     0.36200
C1691       C  0.15958933  0.66488918  0.86392519     0.36200
C1692       C  0.11492921  0.61421343  0.77290877    -0.21200
C1693       C  0.13375664  0.63033712  0.77228807    -0.21200
C1694       C  0.11920822  0.61456529  0.91752110    -0.21200
C1695       C  0.13949361  0.62863465  0.91689660    -0.21200
C1696       C  0.05444747  0.59299038  0.83455702    -0.22300
C1697       C  0.05478472  0.59400313  0.85923736    -0.22300
C1698       C  0.17140089  0.68547221  0.83226432    -0.22300
C1699       C  0.17325880  0.68449697  0.85688340    -0.22300
C1700       C  0.08403202  0.60353638  0.80306348    -0.17600
C1701       C  0.15105556  0.66005843  0.80121237    -0.17600
C1702       C  0.15671625  0.65714734  0.88778135    -0.17600
C1703       C  0.08559248  0.60621361  0.88937934    -0.17600
H1704       H  0.10914766  0.60264008  0.75817837     0.15300
H1705       H  0.14533322  0.63351086  0.75704318     0.15300
H1706       H  0.11353447  0.60374631  0.93255944     0.15300
H1707       H  0.15241113  0.63086111  0.93136035     0.15300
H1708       H  0.04015057  0.58552890  0.82346783     0.13500
H1709       H  0.04086041  0.58735409  0.87102104     0.13500
H1710       H  0.18004655  0.69857768  0.82085582     0.13500
H1711       H  0.18350516  0.69674038  0.86827009     0.13500
H1712       H  0.11252164  0.63940304  0.82564306     0.26800
H1713       H  0.11486456  0.63934222  0.86529124     0.26800
C1714       C  0.79646237  0.28093773  0.29371274     0.80900
N1715       N  0.77709899  0.29247592  0.30333858    -0.77400
C1716       C  0.76772176  0.31249499  0.29275849     0.83300
N1717       N  0.77795469  0.32078999  0.27227083    -0.77400
C1718       C  0.79718658  0.30936436  0.26213488     0.83400
N1719       N  0.80637090  0.28958152  0.27308944    -0.79100
N1720       N  0.67135260  0.38872919  0.36571473    -0.36000
N1721       N  0.62980772  0.41187161  0.39053750    -0.56500
N1722       N  0.59768418  0.38564589  0.35913053    -0.36000
N1723       N  0.63920403  0.35977155  0.33708768    -0.56500
C1724       C  0.68239818  0.40001504  0.38436344     0.27600
C1725       C  0.68702690  0.37226223  0.35658958     0.27600
C1726       C  0.58166856  0.39475419  0.37517969     0.27600
C1727       C  0.58671306  0.36705240  0.34757443     0.27600
C1728       C  0.64803821  0.42494865  0.40027654     0.36200
C1729       C  0.60903059  0.42280493  0.39723167     0.36200
C1730       C  0.65998668  0.35345088  0.32617135     0.36200
C1731       C  0.62119258  0.35180169  0.32278106     0.36200
C1732       C  0.70546909  0.39073617  0.38699676    -0.21200
C1733       C  0.70834026  0.37324820  0.36953077    -0.21200
C1734       C  0.56020339  0.38207465  0.37340423    -0.21200
C1735       C  0.56338505  0.36459499  0.35607607    -0.21200
C1736       C  0.63876757  0.44402511  0.41365500    -0.22300
C1737       C  0.61408556  0.44269670  0.41166759    -0.22300
C1738       C  0.65518825  0.34135037  0.30476953    -0.22300
C1739       C  0.63054078  0.34026060  0.30262537    -0.22300
C1740       C  0.67286677  0.41932623  0.39832500    -0.17600
C1741       C  0.68308469  0.35716290  0.33620219    -0.17600
C1742       C  0.59655099  0.35282248  0.32878194    -0.17600
C1743       C  0.58559466  0.41443963  0.39117435    -0.17600
H1744       H  0.71897799  0.39607582  0.40008080     0.15300
H1745       H  0.72437562  0.36258575  0.36659846     0.15300
H1746       H  0.54396820  0.38492294  0.38372453     0.15300
H1747       H  0.54996757  0.35150278  0.35041221     0.15300
H1748       H  0.64875292  0.45745470  0.42388173     0.13500
H1749       H  0.60133500  0.45490279  0.41997344     0.13500
H1750       H  0.66806104  0.33374689  0.29227239     0.13500
H1751       H  0.62062645  0.33156864  0.28814105     0.13500
H1752       H  0.65460141  0.39321543  0.35890051     0.26800
H1753       H  0.61470313  0.39228095  0.35535779     0.26800
C1754       C  0.75268768  0.46161245  0.45082666     0.80900
N1755       N  0.76234401  0.45054044  0.47026433    -0.77400
C1756       C  0.78352016  0.45845123  0.47981278     0.83300
N1757       N  0.79509008  0.47756212  0.46978372    -0.77400
C1758       C  0.78599474  0.48879144  0.45023848     0.83400
N1759       N  0.76478531  0.48057068  0.44086428    -0.79100
C1760       C  0.95896035  0.46213559  0.26120616     0.80900
N1761       N  0.97859930  0.45273793  0.27257604    -0.77400
C1762       C  0.98664623  0.46279436  0.29363153     0.83300
N1763       N  0.97469609  0.48209157  0.30308745    -0.77400
C1764       C  0.95511674  0.49165605  0.29207687     0.83400
N1765       N  0.94740572  0.48146418  0.27121876    -0.79100
C1766       C  0.94921412  0.30815843  0.48849480     0.80900
N1767       N  0.94165103  0.28722380  0.47773770    -0.77400
C1768       C  0.95402163  0.27773809  0.45884222     0.83300
N1769       N  0.97386664  0.28948030  0.45083083    -0.77400
C1770       C  0.98184040  0.31031096  0.46121088     0.83400
N1771       N  0.96929202  0.31959828  0.48001433    -0.79100
N1772       N  0.06885052  0.38873584  0.38376272    -0.36000
N1773       N  0.10554452  0.41277939  0.35494250    -0.56500
N1774       N  0.14284643  0.38477378  0.37864450    -0.36000
N1775       N  0.10588789  0.35811376  0.40482343    -0.56500
C1776       C  0.05487980  0.39989436  0.36725755     0.27600
C1777       C  0.05524227  0.37138569  0.39410917     0.27600
C1778       C  0.15600993  0.39526260  0.36125753     0.27600
C1779       C  0.15610930  0.36646635  0.38737942     0.27600
C1780       C  0.08623264  0.42617378  0.34872459     0.36200
C1781       C  0.12521986  0.42427131  0.34640948     0.36200
C1782       C  0.08700026  0.35123465  0.41839483     0.36200
C1783       C  0.12580729  0.34912223  0.41540949     0.36200
C1784       C  0.03208703  0.38959400  0.36731833    -0.21200
C1785       C  0.03227095  0.37178655  0.38434511    -0.21200
C1786       C  0.17812637  0.38384724  0.35935538    -0.21200
C1787       C  0.17814991  0.36561652  0.37577167    -0.21200
C1788       C  0.09371207  0.44624779  0.33604025    -0.22300
C1789       C  0.11838589  0.44503428  0.33457124    -0.22300
C1790       C  0.09493086  0.33765571  0.43761842    -0.22300
C1791       C  0.11953964  0.33624351  0.43568082    -0.22300
C1792       C  0.06186257  0.41947952  0.35252590    -0.17600
C1793       C  0.06261629  0.35573528  0.41273944    -0.17600
C1794       C  0.14939766  0.35105279  0.40618784    -0.17600
C1795       C  0.14904659  0.41533479  0.34754755    -0.17600
H1796       H  0.01682042  0.39438710  0.35624821     0.15300
H1797       H  0.01721474  0.36029093  0.38888656     0.15300
H1798       H  0.19278041  0.38813795  0.34736559     0.15300
H1799       H  0.19280255  0.35317801  0.37882087     0.15300
H1800       H  0.08252161  0.46013486  0.32832527     0.13500
H1801       H  0.12993150  0.45776476  0.32549396     0.13500
H1802       H  0.08409317  0.32934056  0.45138503     0.13500
H1803       H  0.13143800  0.32664529  0.44767139     0.13500
H1804       H  0.08631042  0.39344526  0.38853565     0.26800
H1805       H  0.12624311  0.39040099  0.38491451     0.26800
N1806       N  0.86301203  0.38542121  0.56916805    -0.36000
N1807       N  0.89308491  0.36616725  0.60757051    -0.56500
N1808       N  0.86559601  0.39376062  0.64233210    -0.36000
N1809       N  0.83817636  0.41597289  0.60401662    -0.56500
C1810       C  0.88029760  0.37434997  0.55603657     0.27600
C1811       C  0.85099781  0.40041116  0.55432549     0.27600
C1812       C  0.88365819  0.38576239  0.65629186     0.27600
C1813       C  0.85540627  0.41240094  0.65417050     0.27600
C1814       C  0.90115553  0.35244129  0.58912312     0.36200
C1815       C  0.90120643  0.35585082  0.62791644     0.36200
C1816       C  0.82436788  0.42016899  0.58459118     0.36200
C1817       C  0.82564359  0.42403343  0.62314304     0.36200
C1818       C  0.87867285  0.38176200  0.53235551    -0.21200
C1819       C  0.86025922  0.39822410  0.53129048    -0.21200
C1820       C  0.88503714  0.39948981  0.67725574    -0.21200
C1821       C  0.86710530  0.41637873  0.67591243    -0.21200
C1822       C  0.91484802  0.33351814  0.59774123    -0.22300
C1823       C  0.91478010  0.33561134  0.62236452    -0.22300
C1824       C  0.80301116  0.43116965  0.59132640    -0.22300
C1825       C  0.80380421  0.43359011  0.61587521    -0.22300
C1826       C  0.89721083  0.35734899  0.56458777    -0.17600
C1827       C  0.83153450  0.41561737  0.56077863    -0.17600
C1828       C  0.83448566  0.42435955  0.64684528    -0.17600
C1829       C  0.89776167  0.36535573  0.65131757    -0.17600
H1830       H  0.88977602  0.37610325  0.51739170     0.15300
H1831       H  0.85450369  0.40765668  0.51535191     0.15300
H1832       H  0.89738583  0.39727663  0.69215032     0.15300
H1833       H  0.86281905  0.42971125  0.68959237     0.15300
H1834       H  0.92392941  0.31966315  0.58737229     0.13500
H1835       H  0.92390500  0.32376098  0.63473282     0.13500
H1836       H  0.78851051  0.43701309  0.57974709     0.13500
H1837       H  0.79009646  0.44178562  0.62704145     0.13500
H1838       H  0.85914599  0.38236499  0.58702743     0.26800
H1839       H  0.85932411  0.38568620  0.62663734     0.26800
N1840       N  0.87763738  0.38539654  0.17486263    -0.36000
N1841       N  0.90561675  0.40984385  0.13791308    -0.56500
N1842       N  0.87488879  0.38742392  0.10166283    -0.36000
N1843       N  0.84933558  0.36043540  0.13845746    -0.56500
C1844       C  0.89641791  0.39415673  0.18777740     0.27600
C1845       C  0.86704354  0.36802940  0.18810911     0.27600
C1846       C  0.89257949  0.39667800  0.08792642     0.27600
C1847       C  0.86335111  0.37062510  0.08811457     0.27600
C1848       C  0.91382824  0.42189432  0.15750172     0.36200
C1849       C  0.91263210  0.42265881  0.11864302     0.36200
C1850       C  0.83674896  0.35395828  0.15812946     0.36200
C1851       C  0.83551346  0.35478597  0.11915669     0.36200
C1852       C  0.89794685  0.38210181  0.20944300    -0.21200
C1853       C  0.87940294  0.36557107  0.20963850    -0.21200
C1854       C  0.89213730  0.38584948  0.06535236    -0.21200
C1855       C  0.87376701  0.36931901  0.06550321    -0.21200
C1856       C  0.92657571  0.44223527  0.15064877    -0.22300
C1857       C  0.92585711  0.44268510  0.12594090    -0.22300
C1858       C  0.81489359  0.34388354  0.15128449    -0.22300
C1859       C  0.81409786  0.34444028  0.12654949    -0.22300
C1860       C  0.91085404  0.41409988  0.18137743    -0.17600
C1861       C  0.84548470  0.35572019  0.18201006    -0.17600
C1862       C  0.84274964  0.35747692  0.09499558    -0.17600
C1863       C  0.90801718  0.41581314  0.09457795    -0.17600
H1864       H  0.91081227  0.38522144  0.22380454     0.15300
H1865       H  0.87520170  0.35346859  0.22418054     0.15300
H1866       H  0.90372087  0.38957471  0.05023967     0.15300
H1867       H  0.86853056  0.35781315  0.05052355     0.15300
H1868       H  0.93551683  0.45530782  0.16222374     0.13500
H1869       H  0.93408669  0.45616400  0.11465584     0.13500
H1870       H  0.80109437  0.33668537  0.16288306     0.13500
H1871       H  0.79956751  0.33776430  0.11528294     0.13500
H1872       H  0.87125925  0.39232501  0.15881682     0.26800
H1873       H  0.86994950  0.39336690  0.11868188     0.26800
N1874       N  0.87110828  0.57294305  0.37252097    -0.36000
N1875       N  0.84394154  0.60910792  0.40079312    -0.56500
N1876       N  0.86911903  0.64723213  0.37649000    -0.36000
N1877       N  0.89908770  0.61125601  0.35105748    -0.56500
C1878       C  0.85982045  0.55877140  0.38850088     0.27600
C1879       C  0.88911427  0.56005505  0.36240943     0.27600
C1880       C  0.85783722  0.66015997  0.39368863     0.27600
C1881       C  0.88643244  0.66125828  0.36730558     0.27600
C1882       C  0.83150253  0.58903921  0.40651479     0.36200
C1883       C  0.83080022  0.62807348  0.40875729     0.36200
C1884       C  0.90756675  0.59249167  0.33793499     0.36200
C1885       C  0.90583030  0.63144940  0.33953611     0.36200
C1886       C  0.87055935  0.53619837  0.38828551    -0.21200
C1887       C  0.88902037  0.53701468  0.37184423    -0.21200
C1888       C  0.86795161  0.68300954  0.39529361    -0.21200
C1889       C  0.88599462  0.68374009  0.37858818    -0.21200
C1890       C  0.81052171  0.59529451  0.41848729    -0.22300
C1891       C  0.81003631  0.62003965  0.41980235    -0.22300
C1892       C  0.92008789  0.60080195  0.31817066    -0.22300
C1893       C  0.91896625  0.62555311  0.31917260    -0.22300
C1894       C  0.83946970  0.56510900  0.40251410    -0.17600
C1895       C  0.90495022  0.56800657  0.34415964    -0.17600
C1896       C  0.90148325  0.65514328  0.34789541    -0.17600
C1897       C  0.83789119  0.65249622  0.40716942    -0.17600
H1898       H  0.86558096  0.52070129  0.39885231     0.15300
H1899       H  0.90100279  0.52230330  0.36732904     0.15300
H1900       H  0.86276353  0.69768351  0.40715825     0.15300
H1901       H  0.89736494  0.69917231  0.37504211     0.15300
H1902       H  0.79703419  0.58327802  0.42569796     0.13500
H1903       H  0.79613036  0.63085154  0.42815799     0.13500
H1904       H  0.92914227  0.59016295  0.30452930     0.13500
H1905       H  0.92708790  0.63780635  0.30651601     0.13500
H1906       H  0.86565083  0.59084431  0.36770688     0.26800
H1907       H  0.86417275  0.62960470  0.36989138     0.26800
N1908       N  0.88088803  0.19505965  0.37036185    -0.36000
N1909       N  0.84862317  0.15914100  0.34874341    -0.56500
N1910       N  0.87529487  0.12093293  0.37324013    -0.36000
N1911       N  0.90488370  0.15685230  0.39767634    -0.56500
C1912       C  0.86373209  0.20956897  0.36096408     0.27600
C1913       C  0.89338556  0.20829620  0.38679921     0.27600
C1914       C  0.85702394  0.10802296  0.36350294     0.27600
C1915       C  0.88540708  0.10708943  0.39037677     0.27600
C1916       C  0.84080263  0.17885314  0.33686166     0.36200
C1917       C  0.83866362  0.13964984  0.33759713     0.36200
C1918       C  0.91911659  0.17568619  0.40404951     0.36200
C1919       C  0.91558748  0.13671245  0.40609006     0.36200
C1920       C  0.86551139  0.23234350  0.37139892    -0.21200
C1921       C  0.88411093  0.23153530  0.38771355    -0.21200
C1922       C  0.85569917  0.08561816  0.37434919    -0.21200
C1923       C  0.87356813  0.08504656  0.39130751    -0.21200
C1924       C  0.82531908  0.17181969  0.31846198    -0.22300
C1925       C  0.82396278  0.14703263  0.31894639    -0.22300
C1926       C  0.93896120  0.16745663  0.41672541    -0.22300
C1927       C  0.93670714  0.14276384  0.41802852    -0.22300
C1928       C  0.84691722  0.20314849  0.34272322    -0.17600
C1929       C  0.91330584  0.20031822  0.40062646    -0.17600
C1930       C  0.90570605  0.11317406  0.40449410    -0.17600
C1931       C  0.84209364  0.11529890  0.34437304    -0.17600
H1932       H  0.85447446  0.24794481  0.36771791     0.15300
H1933       H  0.89010270  0.24645491  0.39896221     0.15300
H1934       H  0.84316958  0.07109102  0.37045937     0.15300
H1935       H  0.87746944  0.06996763  0.40287393     0.15300
H1936       H  0.81605464  0.18331451  0.30587122     0.13500
H1937       H  0.81340358  0.13572938  0.30690203     0.13500
H1938       H  0.95331744  0.17818460  0.42461890     0.13500
H1939       H  0.94899029  0.13069869  0.42703622     0.13500
H1940       H  0.88464393  0.17748764  0.36503656     0.26800
H1941       H  0.88122502  0.13763624  0.36752134     0.26800
O1942       O  0.01432977  0.29125135  0.79795553    -0.77800
C1943       C  0.95128584  0.23924560  0.79343762     0.83200
O1944       O  0.02811843  0.21869023  0.74708229    -0.79000
O1945       O  0.94742196  0.24406902  0.71788360    -0.80400
O1946       O  0.97412391  0.32054034  0.72680074    -0.80200
O1947       O  0.01752558  0.31856116  0.76909682    -0.78900
Zn1948     Zn  0.99914486  0.26222019  0.78153400     1.55700
O1949       O  0.94134131  0.29866810  0.73383313    -0.80300
Cd1950     Cd  0.00113813  0.30085704  0.74120295     1.59700
Cd1951     Cd  0.00763139  0.24318923  0.72646757     1.59600
O1952       O  0.02553451  0.29994043  0.71458565    -0.80300
O1953       O  0.99134495  0.26755019  0.74858367    -1.90800
Cd1954     Cd  0.95590088  0.26632409  0.74573949     1.59900
O1955       O  0.03049837  0.26168549  0.70246801    -0.80200
O1956       O  0.94108288  0.24811988  0.77488605    -0.78900
C1957       C  0.03308740  0.22084435  0.76946142     0.83700
C1958       C  0.02204781  0.31144997  0.79022418     0.83300
O1959       O  0.97272167  0.24509578  0.79913130    -0.77800
C1960       C  0.95171076  0.31694359  0.72450037     0.84100
O1961       O  0.02395761  0.23741997  0.78236661    -0.77900
C1962       C  0.03499340  0.28427546  0.70084192     0.84300
C1963       C  0.95815222  0.22843592  0.70508258     0.84600
O1964       O  0.98082190  0.22466357  0.70667786    -0.80300
C1965       C  0.02261414  0.21067178  0.00095874     0.80900
N1966       N  0.00234459  0.20104943  0.01053723    -0.77400
C1967       C  0.99173013  0.21087225  0.03027703     0.83300
N1968       N  0.00182778  0.23059424  0.04096131    -0.77400
C1969       C  0.02219187  0.24053763  0.03178040     0.83400
N1970       N  0.03248276  0.23044642  0.01178640    -0.79100
N1971       N  0.10228660  0.32313472  0.11257357    -0.36000
N1972       N  0.08275630  0.36148445  0.08309208    -0.56500
N1973       N  0.11014942  0.39644103  0.11184058    -0.36000
N1974       N  0.13231764  0.35814521  0.13869961    -0.56500
C1975       C  0.09260852  0.31029774  0.09405741     0.27600
C1976       C  0.11760460  0.30836835  0.12427031     0.27600
C1977       C  0.10138030  0.41049606  0.09429072     0.27600
C1978       C  0.12858114  0.40867324  0.12220748     0.27600
C1979       C  0.06891353  0.34302954  0.07513726     0.36200
C1980       C  0.07158967  0.38189062  0.07635827     0.36200
C1981       C  0.13638798  0.33853146  0.15226205     0.36200
C1982       C  0.14160903  0.37727195  0.15088812     0.36200
C1983       C  0.10161912  0.28699439  0.09422234    -0.21200
C1984       C  0.11742929  0.28578939  0.11322574    -0.21200
C1985       C  0.11417724  0.43202739  0.09362891    -0.21200
C1986       C  0.13137567  0.43085966  0.11125744    -0.21200
C1987       C  0.04895950  0.35169271  0.06298247    -0.22300
C1988       C  0.05063408  0.37644616  0.06381291    -0.22300
C1989       C  0.14859171  0.34522253  0.17311614    -0.22300
C1990       C  0.15193482  0.36979916  0.17220822    -0.22300
C1991       C  0.07476036  0.31852248  0.07789418    -0.17600
C1992       C  0.13125487  0.31447639  0.14501644    -0.17600
C1993       C  0.14183397  0.40117158  0.14237934    -0.17600
C1994       C  0.08105987  0.40522434  0.08000354    -0.17600
H1995       H  0.09720014  0.27234218  0.08194176     0.15300
H1996       H  0.12762208  0.27002615  0.11831906     0.15300
H1997       H  0.11126863  0.44716121  0.08184574     0.15300
H1998       H  0.14425134  0.44491691  0.11571831     0.15300
H1999       H  0.03478418  0.34128321  0.05436255     0.13500
H2000       H  0.03810582  0.38897908  0.05582356     0.13500
H2001       H  0.15477437  0.33355441  0.18731923     0.13500
H2002       H  0.16108693  0.38085244  0.18556597     0.13500
H2003       H  0.09775643  0.34055689  0.11778452     0.26800
H2004       H  0.10279006  0.38024061  0.11739238     0.26800
C2005       C  0.03023588  0.05380032  0.22677977     0.80900
N2006       N  0.01114861  0.06387653  0.21520140    -0.77400
C2007       C  0.00257432  0.05477707  0.19401458     0.83300
N2008       N  0.01347417  0.03493779  0.18441052    -0.77400
C2009       C  0.03274884  0.02448776  0.19551592     0.83400
N2010       N  0.04104027  0.03406980  0.21669603    -0.79100
C2011       C  0.18217836  0.23727417  0.19199199     0.80900
N2012       N  0.17267802  0.22821798  0.21255231    -0.77400
C2013       C  0.18231583  0.20853790  0.22309986     0.83300
N2014       N  0.20169860  0.19781222  0.21257535    -0.77400
C2015       C  0.21126017  0.20639453  0.19181131     0.83400
N2016       N  0.20139072  0.22623315  0.18161699    -0.79100
N2017       N  0.10554737  0.13417997  0.31362981    -0.36000
N2018       N  0.08157866  0.10599438  0.35106737    -0.56500
N2019       N  0.11281425  0.12812231  0.38626989    -0.36000
N2020       N  0.13886040  0.15392958  0.34904994    -0.56500
C2021       C  0.09231634  0.11856010  0.30014721     0.27600
C2022       C  0.12257630  0.14374005  0.29913050     0.27600
C2023       C  0.10290063  0.11031010  0.39930185     0.27600
C2024       C  0.13239943  0.13589422  0.39842311     0.27600
C2025       C  0.06682714  0.10071269  0.33247358     0.36200
C2026       C  0.07052656  0.09801878  0.37105937     0.36200
C2027       C  0.14559857  0.16716551  0.32997171     0.36200
C2028       C  0.14811231  0.16504919  0.36873153     0.36200
C2029       C  0.10071458  0.11864390  0.27666847    -0.21200
C2030       C  0.11974211  0.13451603  0.27604213    -0.21200
C2031       C  0.11649489  0.10649584  0.41984762    -0.21200
C2032       C  0.13511347  0.12273596  0.41934305    -0.21200
C2033       C  0.04642248  0.08889037  0.34061249    -0.22300
C2034       C  0.04873067  0.08728586  0.36516625    -0.22300
C2035       C  0.15959904  0.18657214  0.33750262    -0.22300
C2036       C  0.16113409  0.18526937  0.36214266    -0.22300
C2037       C  0.07248134  0.10462898  0.30813710    -0.17600
C2038       C  0.14002967  0.16129249  0.30583181    -0.17600
C2039       C  0.14631645  0.15613049  0.39230275    -0.17600
C2040       C  0.08075242  0.09901617  0.39425809    -0.17600
H2041       H  0.09387939  0.10832175  0.26148059     0.15300
H2042       H  0.13034829  0.13871799  0.26034972     0.15300
H2043       H  0.11299147  0.09383278  0.43409518     0.15300
H2044       H  0.14866725  0.12497082  0.43319369     0.15300
H2045       H  0.03156455  0.08195597  0.32993904     0.13500
H2046       H  0.03607849  0.07883984  0.37722048     0.13500
H2047       H  0.16786294  0.20018403  0.32640758     0.13500
H2048       H  0.17097488  0.19756539  0.37382726     0.13500
H2049       H  0.10242447  0.13875977  0.33144380     0.26800
H2050       H  0.10545894  0.13612735  0.37117905     0.26800
C2051       C  0.21517521  0.05091486  0.03618586     0.80900
N2052       N  0.20338392  0.06055515  0.01711467    -0.77400
C2053       C  0.18324052  0.04977798  0.00765925     0.83300
N2054       N  0.17493849  0.02896808  0.01747659    -0.77400
C2055       C  0.18636393  0.01899280  0.03656626     0.83400
N2056       N  0.20630570  0.03018408  0.04588380    -0.79100
N2057       N  0.30231587  0.12748195  0.11725915    -0.36000
N2058       N  0.34096007  0.10332360  0.09124655    -0.56500
N2059       N  0.37553332  0.13187156  0.11901397    -0.36000
N2060       N  0.33719990  0.15340905  0.14750530    -0.56500
C2061       C  0.28965965  0.10994592  0.10549297     0.27600
C2062       C  0.28782629  0.13697992  0.13449956     0.27600
C2063       C  0.38989037  0.11527551  0.10856991     0.27600
C2064       C  0.38762647  0.14062804  0.13828678     0.27600
C2065       C  0.32207968  0.09480416  0.07817740     0.36200
C2066       C  0.36116229  0.09846419  0.07854471     0.36200
C2067       C  0.31710919  0.16530550  0.15412514     0.36200
C2068       C  0.35598650  0.16704892  0.15506271     0.36200
C2069       C  0.26678639  0.10852446  0.11529252    -0.21200
C2070       C  0.26564140  0.12549997  0.13350763    -0.21200
C2071       C  0.41116863  0.11321418  0.12152715    -0.21200
C2072       C  0.40979984  0.12938754  0.14023313    -0.21200
C2073       C  0.33038111  0.08410167  0.05717244    -0.22300
C2074       C  0.35511408  0.08647410  0.05737370    -0.22300
C2075       C  0.32318091  0.18653274  0.16619975    -0.22300
C2076       C  0.34791785  0.18760266  0.16682499    -0.22300
C2077       C  0.29757502  0.09599712  0.08535608    -0.17600
C2078       C  0.29345949  0.15665605  0.15022650    -0.17600
C2079       C  0.38021792  0.16021335  0.15262142    -0.17600
C2080       C  0.38499353  0.10317148  0.08676063    -0.17600
H2081       H  0.25231161  0.09654211  0.10981710     0.15300
H2082       H  0.25014019  0.12906712  0.14470477     0.15300
H2083       H  0.42634828  0.10163570  0.11762480     0.15300
H2084       H  0.42375231  0.13282702  0.15346318     0.15300
H2085       H  0.31973875  0.07545923  0.04319144     0.13500
H2086       H  0.36726694  0.07987573  0.04365807     0.13500
H2087       H  0.31107427  0.19978185  0.17385841     0.13500
H2088       H  0.35871324  0.20170651  0.17513744     0.13500
H2089       H  0.31935890  0.13362722  0.11291825     0.26800
H2090       H  0.35937567  0.13830996  0.11219302     0.26800
N2091       N  0.10160269  0.12536538  0.91993193    -0.36000
N2092       N  0.13086340  0.10035762  0.88473659    -0.56500
N2093       N  0.10536277  0.12513359  0.84594987    -0.36000
N2094       N  0.07855931  0.15266197  0.88157395    -0.56500
C2095       C  0.11892149  0.11614429  0.93437260     0.27600
C2096       C  0.08960929  0.14226141  0.93285249     0.27600
C2097       C  0.12380062  0.11477225  0.83399527     0.27600
C2098       C  0.09764077  0.14375012  0.83244713     0.27600
C2099       C  0.13807093  0.08856803  0.90459143     0.36200
C2100       C  0.13833948  0.08706920  0.86577416     0.36200
C2101       C  0.06428529  0.15943244  0.90006246     0.36200
C2102       C  0.06819937  0.16110461  0.86131758     0.36200
C2103       C  0.11764868  0.12707110  0.95684853    -0.21200
C2104       C  0.09914382  0.14348106  0.95592086    -0.21200
C2105       C  0.12749951  0.12654600  0.81244503    -0.21200
C2106       C  0.11100683  0.14486686  0.81148760    -0.21200
C2107       C  0.15030330  0.06770203  0.89824893    -0.22300
C2108       C  0.15039796  0.06669909  0.87358142    -0.22300
C2109       C  0.04476838  0.17234063  0.89149389    -0.22300
C2110       C  0.04725419  0.17340118  0.86693234    -0.22300
C2111       C  0.13501806  0.09726991  0.92827765    -0.17600
C2112       C  0.06986591  0.15614658  0.92466872    -0.17600
C2113       C  0.07841192  0.15935930  0.83811318    -0.17600
C2114       C  0.13712896  0.09467979  0.84171502    -0.17600
H2115       H  0.12880876  0.12349132  0.97237876     0.15300
H2116       H  0.09340264  0.15502526  0.97061488     0.15300
H2117       H  0.14084953  0.12250665  0.79887964     0.15300
H2118       H  0.10919777  0.15766169  0.79704210     0.15300
H2119       H  0.15857899  0.05477522  0.91012683     0.13500
H2120       H  0.15896331  0.05295236  0.86262976     0.13500
H2121       H  0.03051382  0.18057715  0.90191048     0.13500
H2122       H  0.03525216  0.18250144  0.85465968     0.13500
H2123       H  0.09730781  0.11970978  0.90262416     0.26800
H2124       H  0.09796550  0.11914267  0.86192483     0.26800
N2125       N  0.10802419  0.93401613  0.11943613    -0.36000
N2126       N  0.08220485  0.89684846  0.14675753    -0.56500
N2127       N  0.11220284  0.86030500  0.12450734    -0.36000
N2128       N  0.13533789  0.89724312  0.09446812    -0.56500
C2129       C  0.08912747  0.94669587  0.12819565     0.27600
C2130       C  0.11800784  0.94720443  0.10163743     0.27600
C2131       C  0.09560037  0.84635000  0.13546570     0.27600
C2132       C  0.12295150  0.84634452  0.10769983     0.27600
C2133       C  0.07390220  0.91689810  0.15795631     0.36200
C2134       C  0.07668069  0.87797268  0.16096605     0.36200
C2135       C  0.14709964  0.91685845  0.08604066     0.36200
C2136       C  0.14839702  0.87767907  0.08795147     0.36200
C2137       C  0.08710249  0.96819569  0.11581201    -0.21200
C2138       C  0.10523792  0.96847270  0.09902567    -0.21200
C2139       C  0.09608328  0.82321535  0.12575991    -0.21200
C2140       C  0.11323767  0.82322951  0.10816468    -0.21200
C2141       C  0.06291776  0.91072989  0.17938158    -0.22300
C2142       C  0.06461805  0.88601709  0.18124699    -0.22300
C2143       C  0.16759189  0.90960941  0.07379942    -0.22300
C2144       C  0.16830120  0.88481021  0.07485507    -0.22300
C2145       C  0.07491864  0.94043797  0.14836608    -0.17600
C2146       C  0.13896665  0.94108016  0.08843161    -0.17600
C2147       C  0.14204507  0.85339161  0.09265411    -0.17600
C2148       C  0.08085063  0.85351283  0.15480786    -0.17600
H2149       H  0.07405421  0.98237390  0.11877921     0.15300
H2150       H  0.10876884  0.98283170  0.08647606     0.15300
H2151       H  0.08526273  0.80783840  0.13083875     0.15300
H2152       H  0.11809907  0.80783314  0.09708974     0.15300
H2153       H  0.05424436  0.92272804  0.19212867     0.13500
H2154       H  0.05751360  0.87518793  0.19566892     0.13500
H2155       H  0.18066538  0.92094168  0.06496221     0.13500
H2156       H  0.18197461  0.87333464  0.06699856     0.13500
H2157       H  0.11473775  0.91810371  0.12641189     0.26800
H2158       H  0.11689677  0.87790221  0.12906646     0.26800
N2159       N  0.91339279  0.12961018  0.11374264    -0.36000
N2160       N  0.87505744  0.15395704  0.08818912    -0.56500
N2161       N  0.83948501  0.13126060  0.11877858    -0.36000
N2162       N  0.87818129  0.10949933  0.14660253    -0.56500
C2163       C  0.92607489  0.14579462  0.10091939     0.27600
C2164       C  0.92775548  0.12221616  0.13184120     0.27600
C2165       C  0.82593509  0.14840651  0.10830468     0.27600
C2166       C  0.82738498  0.12374495  0.13829484     0.27600
C2167       C  0.89352916  0.15866854  0.07323217     0.36200
C2168       C  0.85473383  0.16014327  0.07642492     0.36200
C2169       C  0.89799116  0.09727402  0.15362870     0.36200
C2170       C  0.85906130  0.09766973  0.15581699     0.36200
C2171       C  0.94876515  0.14879071  0.11105532    -0.21200
C2172       C  0.94988413  0.13372732  0.13049522    -0.21200
C2173       C  0.80487998  0.15172542  0.12123350    -0.21200
C2174       C  0.80579890  0.13610363  0.14021938    -0.21200
C2175       C  0.88491748  0.16800734  0.05186340    -0.22300
C2176       C  0.86029953  0.16901122  0.05391803    -0.22300
C2177       C  0.89148630  0.07787667  0.16769458    -0.22300
C2178       C  0.86680971  0.07810727  0.16906977    -0.22300
C2179       C  0.91809029  0.15694111  0.07964385    -0.17600
C2180       C  0.92191383  0.10410496  0.14844659    -0.17600
C2181       C  0.83480993  0.10512767  0.15361634    -0.17600
C2182       C  0.83154597  0.16017546  0.08672748    -0.17600
H2183       H  0.96315971  0.16035128  0.10488990     0.15300
H2184       H  0.96527559  0.13138519  0.14220565     0.15300
H2185       H  0.79027176  0.16395279  0.11728048     0.15300
H2186       H  0.79208288  0.13397406  0.15380057     0.15300
H2187       H  0.89532817  0.17398090  0.03662959     0.13500
H2188       H  0.84794973  0.17591514  0.04058888     0.13500
H2189       H  0.90329489  0.06497513  0.17615483     0.13500
H2190       H  0.85583259  0.06536753  0.17878872     0.13500
H2191       H  0.89649188  0.12274555  0.10943162     0.26800
H2192       H  0.85540421  0.12400580  0.11223500     0.26800
C2193       C  0.26397504  0.09729795  0.05537883    -0.11600
C2194       C  0.27855749  0.08341861  0.07044585     0.05400
C2195       C  0.27311657  0.05865054  0.07273110    -0.06900
C2196       C  0.25278701  0.04869751  0.06114347    -0.07700
C2197       C  0.23746157  0.06268142  0.04670570    -0.02200
C2198       C  0.24385707  0.08732661  0.04336709     0.04600
N2199       N  0.22992952  0.10300129  0.02865390     0.67100
H2200       H  0.26792491  0.11633972  0.05336640     0.16000
H2201       H  0.24895186  0.02971640  0.06367642     0.15700
N2202       N  0.28767097  0.04326678  0.08710870     0.74800
O2203       O  0.21522873  0.11714483  0.03871453    -0.38600
O2204       O  0.23797092  0.10840982  0.00821961    -0.38600
O2205       O  0.28008590  0.03722789  0.10752718    -0.39300
O2206       O  0.30317199  0.03019573  0.07682020    -0.39300
C2207       C  0.15257464  0.96013693  0.05003621    -0.11600
C2208       C  0.15189598  0.96077738  0.07522745     0.05400
C2209       C  0.16318487  0.98035997  0.08735180    -0.06900
C2210       C  0.17488764  0.99843868  0.07431269    -0.07700
C2211       C  0.17543963  0.99796077  0.04911904    -0.02200
C2212       C  0.16421059  0.97830359  0.03694503     0.04600
N2213       N  0.16522432  0.97568214  0.01142567     0.67100
H2214       H  0.14404642  0.94528767  0.04040538     0.16000
H2215       H  0.18306747  0.01339672  0.08408068     0.15700
N2216       N  0.16294335  0.98239977  0.11294353     0.74800
O2217       O  0.18195380  0.96318182  0.00247158    -0.38600
O2218       O  0.14601786  0.97796361  0.99956113    -0.38600
O2219       O  0.18168855  0.97683435  0.12444635    -0.39300
O2220       O  0.14799533  0.99650760  0.12268506    -0.39300
C2221       C  0.18304386  0.07817787  0.97331462    -0.11600
C2222       C  0.17052235  0.06104123  0.98693448     0.05400
C2223       C  0.14628643  0.05574446  0.98048062    -0.06900
C2224       C  0.13543650  0.06762656  0.96121355    -0.07700
C2225       C  0.14794553  0.08487984  0.94806608    -0.02200
C2226       C  0.17206257  0.09007237  0.95414453     0.04600
N2227       N  0.18559104  0.10781973  0.94158602     0.67100
H2228       H  0.20158782  0.08260247  0.97757201     0.16000
H2229       H  0.11687690  0.06352963  0.95662411     0.15700
N2230       N  0.13192346  0.03891243  0.99334837     0.74800
O2231       O  0.18752666  0.12865696  0.95077984    -0.38600
O2232       O  0.20123968  0.10084972  0.92669482    -0.38600
O2233       O  0.11748859  0.04695252  0.00892807    -0.39300
O2234       O  0.12729079  0.01888000  0.98338662    -0.39300
C2235       C  0.18471270  0.18046756  0.25779749    -0.11600
C2236       C  0.17165893  0.19825470  0.24550711     0.05400
C2237       C  0.14867306  0.20483797  0.25466965    -0.06900
C2238       C  0.13929747  0.19307746  0.27477686    -0.07700
C2239       C  0.15210878  0.17483194  0.28625806    -0.02200
C2240       C  0.17519574  0.16875751  0.27783093     0.04600
N2241       N  0.18887750  0.14999521  0.28864524     0.67100
H2242       H  0.20238013  0.17510597  0.25158722     0.16000
H2243       H  0.12149236  0.19782637  0.28114469     0.15700
N2244       N  0.13395181  0.22264814  0.24356911     0.74800
O2245       O  0.18832382  0.12919476  0.27919516    -0.38600
O2246       O  0.20636508  0.15568902  0.30209741    -0.38600
O2247       O  0.11672614  0.21566192  0.23036220    -0.39300
O2248       O  0.13289677  0.24336921  0.25314646    -0.39300
C2249       C  0.24829399  0.18154788  0.19579090    -0.11600
C2250       C  0.23246931  0.19422939  0.18078981     0.05400
C2251       C  0.23729316  0.19458094  0.15579354    -0.06900
C2252       C  0.25761448  0.18285045  0.14665385    -0.07700
C2253       C  0.27308240  0.16994087  0.16160132    -0.02200
C2254       C  0.26829997  0.16932174  0.18648142     0.04600
N2255       N  0.28277654  0.15550863  0.20246682     0.67100
H2256       H  0.24503285  0.18085691  0.21496040     0.16000
H2257       H  0.26092114  0.18312616  0.12746689     0.15700
N2258       N  0.22098985  0.20496166  0.13897813     0.74800
O2259       O  0.29806991  0.16632479  0.21552226    -0.38600
O2260       O  0.27517087  0.13509616  0.20887642    -0.38600
O2261       O  0.22748542  0.22368664  0.12805507    -0.39300
O2262       O  0.20538861  0.19141285  0.12924643    -0.39300
C2263       C  0.06686908  0.06757139  0.28408613    -0.11600
C2264       C  0.05893162  0.09065196  0.28977224     0.05400
C2265       C  0.04024413  0.10089957  0.27645241    -0.06900
C2266       C  0.03056436  0.08828413  0.25660238    -0.07700
C2267       C  0.03950080  0.06533295  0.24961052    -0.02200
C2268       C  0.05757623  0.05487175  0.26433427     0.04600
N2269       N  0.06834794  0.03219764  0.25907503     0.67100
H2270       H  0.08137308  0.05973209  0.29447495     0.16000
H2271       H  0.01653913  0.09691591  0.24625894     0.15700
N2272       N  0.03141985  0.12428767  0.28281492     0.74800
O2273       O  0.08986184  0.03263821  0.25198285    -0.38600
O2274       O  0.06131659  0.01412044  0.27076476    -0.38600
O2275       O  0.04264146  0.14269009  0.27570598    -0.39300
O2276       O  0.01731830  0.12633154  0.30043905    -0.39300
C2277       C  0.96889639  0.08517233  0.19437472    -0.11600
C2278       C  0.98155387  0.06682329  0.18181990     0.05400
C2279       C  0.97387068  0.06113597  0.15795924    -0.06900
C2280       C  0.95433663  0.07332589  0.14772399    -0.07700
C2281       C  0.94206747  0.09129245  0.16040484    -0.02200
C2282       C  0.94948589  0.09739999  0.18378972     0.04600
N2283       N  0.93781960  0.11658038  0.19653624     0.67100
H2284       H  0.97415494  0.09030693  0.21248071     0.16000
H2285       H  0.94883976  0.06889108  0.12948519     0.15700
N2286       N  0.98588983  0.04375387  0.14321756     0.74800
O2287       O  0.91856090  0.11223612  0.20764206    -0.38600
O2288       O  0.94288570  0.13811912  0.19135625    -0.38600
O2289       O  0.97568008  0.02369271  0.13940153    -0.39300
O2290       O  0.00080700  0.05127449  0.12795804    -0.39300
C2291       C  0.02911054  0.98673740  0.17088887    -0.11600
C2292       C  0.04385344  0.00235388  0.18463585     0.05400
C2293       C  0.06852320  0.99624820  0.18715679    -0.06900
C2294       C  0.07770461  0.97569028  0.17565582    -0.07700
C2295       C  0.06307787  0.96060532  0.16166839    -0.02200
C2296       C  0.03840736  0.96600821  0.15958677     0.04600
N2297       N  0.02255466  0.95102615  0.14575886     0.67100
H2298       H  0.01010478  0.99057178  0.16887620     0.16000
H2299       H  0.09673020  0.97167954  0.17731522     0.15700
N2300       N  0.08504217  0.01053117  0.20082629     0.74800
O2301       O  0.00991797  0.93559763  0.15650065    -0.38600
O2302       O  0.01587246  0.95811952  0.12533633    -0.38600
O2303       O  0.09479597  0.00070431  0.21871065    -0.39300
O2304       O  0.09649399  0.02691680  0.19016267    -0.39300
C2305       C  0.16906550  0.29343071  0.15535464    -0.11600
C2306       C  0.14401829  0.29478802  0.15762097     0.05400
C2307       C  0.13181691  0.27717850  0.17104998    -0.06900
C2308       C  0.14482614  0.25889707  0.18212418    -0.07700
C2309       C  0.16992528  0.25750141  0.18002375    -0.02200
C2310       C  0.18213049  0.27508087  0.16638767     0.04600
N2311       N  0.20770667  0.27529242  0.16407847     0.67100
H2312       H  0.17856841  0.30682231  0.14492519     0.16000
H2313       H  0.13503844  0.24543885  0.19218227     0.15700
N2314       N  0.10628643  0.27743713  0.17375428     0.74800
O2315       O  0.21670867  0.26854089  0.14436795    -0.38600
O2316       O  0.21973475  0.28942919  0.17741896    -0.38600
O2317       O  0.09387002  0.26267878  0.16147330    -0.39300
O2318       O  0.09763216  0.28575737  0.19305770    -0.39300
C2319       C  0.04989633  0.27557268  0.03011770    -0.11600
C2320       C  0.03390089  0.26163482  0.04371168     0.05400
C2321       C  0.03044433  0.26792393  0.06825764    -0.06900
C2322       C  0.04353350  0.28695182  0.07854820    -0.07700
C2323       C  0.06005764  0.30007434  0.06510581    -0.02200
C2324       C  0.06288331  0.29463724  0.04050800     0.04600
N2325       N  0.07929284  0.30770314  0.02586413     0.67100
H2326       H  0.05263568  0.27155822  0.01122488     0.16000
H2327       H  0.04112458  0.29124386  0.09744945     0.15700
N2328       N  0.01418146  0.25530752  0.08342595     0.74800
O2329       O  0.09959146  0.29853514  0.02150870    -0.38600
O2330       O  0.07095434  0.32313253  0.01157959    -0.38600
O2331       O  0.02252760  0.23921153  0.09695739    -0.39300
O2332       O  0.99528948  0.26612031  0.08981894    -0.39300
C2333       C  0.02693350  0.17425111  0.97474074    -0.11600
C2334       C  0.03450035  0.19797628  0.98025717     0.05400
C2335       C  0.05328337  0.20803803  0.96623341    -0.06900
C2336       C  0.06380748  0.19433139  0.94770185    -0.07700
C2337       C  0.05643749  0.17059092  0.94287303    -0.02200
C2338       C  0.03773685  0.16057740  0.95651308     0.04600
N2339       N  0.02967941  0.13637718  0.95248776     0.67100
H2340       H  0.01280299  0.16576011  0.98503518     0.16000
H2341       H  0.07830747  0.20210834  0.93732009     0.15700
N2342       N  0.06214749  0.23195395  0.97027273     0.74800
O2343       O  0.03764721  0.11996840  0.96586806    -0.38600
O2344       O  0.01006597  0.13293970  0.94145968    -0.38600
O2345       O  0.08211846  0.23459452  0.98086592    -0.39300
O2346       O  0.05489335  0.24850236  0.95666257    -0.39300
C2347       C  0.93538151  0.19561279  0.06612567    -0.11600
C2348       C  0.93600773  0.17040148  0.06529293     0.05400
C2349       C  0.95436809  0.15874620  0.05223822    -0.06900
C2350       C  0.97174509  0.17247271  0.04049154    -0.07700
C2351       C  0.97156446  0.19780908  0.04171553    -0.02200
C2352       C  0.95286764  0.20940158  0.05455960     0.04600
N2353       N  0.95085779  0.23502128  0.05596814     0.67100
H2354       H  0.92133830  0.20469413  0.07620400     0.16000
H2355       H  0.98596127  0.16309560  0.03095533     0.15700
N2356       N  0.95596446  0.13304759  0.05095719     0.74800
O2357       O  0.95525400  0.24515808  0.07588840    -0.38600
O2358       O  0.93661845  0.24528991  0.04166515    -0.38600
O2359       O  0.94944747  0.12243642  0.03183075    -0.39300
O2360       O  0.97036150  0.12247212  0.06488362    -0.39300
C2361       C  0.06324776  0.21427554  0.80085027    -0.11600
C2362       C  0.04911352  0.20410688  0.78235249     0.05400
C2363       C  0.04665491  0.17876303  0.78100523    -0.06900
C2364       C  0.05665285  0.16446932  0.79915132    -0.07700
C2365       C  0.06903978  0.17501591  0.81866287    -0.02200
C2366       C  0.07300299  0.20012034  0.81896405     0.04600
N2367       N  0.08639643  0.21172051  0.83777489     0.67100
H2368       H  0.06556143  0.23369854  0.80207707     0.16000
H2369       H  0.05407237  0.14507750  0.79844597     0.15700
N2370       N  0.03283785  0.16728461  0.76245603     0.74800
O2371       O  0.10820974  0.21683467  0.83413436    -0.38600
O2372       O  0.07513595  0.22314757  0.85391193    -0.38600
O2373       O  0.04377984  0.15662348  0.74560095    -0.39300
O2374       O  0.01128342  0.16157366  0.76669581    -0.39300
C2375       C  0.93571135  0.35872902  0.67324984    -0.11600
C2376       C  0.91102128  0.35465400  0.67156829     0.05400
C2377       C  0.89934408  0.34089868  0.68919385    -0.06900
C2378       C  0.91277621  0.33037836  0.70751357    -0.07700
C2379       C  0.93787498  0.33297476  0.70844597    -0.02200
C2380       C  0.94932718  0.34789845  0.69120613     0.04600
N2381       N  0.97487059  0.35054717  0.68995846     0.67100
H2382       H  0.94464893  0.36959944  0.65984916     0.16000
H2383       H  0.90355780  0.31909519  0.72035050     0.15700
N2384       N  0.87408527  0.33626915  0.68805488     0.74800
O2385       O  0.98632995  0.33708482  0.67562310    -0.38600
O2386       O  0.98424076  0.37031320  0.69657007    -0.38600
O2387       O  0.86691643  0.31620335  0.67976734    -0.39300
O2388       O  0.86027482  0.34830929  0.70152198    -0.39300
C2389       C  0.94679572  0.33816596  0.52180990    -0.11600
C2390       C  0.93572304  0.31914167  0.50898135     0.05400
C2391       C  0.91222800  0.31192423  0.51600800    -0.06900
C2392       C  0.90034711  0.32436871  0.53445555    -0.07700
C2393       C  0.91133268  0.34367970  0.54648923    -0.02200
C2394       C  0.93495055  0.35029851  0.54038357     0.04600
N2395       N  0.94714360  0.36959800  0.55249249     0.67100
H2396       H  0.96487981  0.34393767  0.51743692     0.16000
H2397       H  0.88224260  0.31900624  0.53933192     0.15700
N2398       N  0.90002250  0.29183524  0.50535881     0.74800
O2399       O  0.96213708  0.36453461  0.56873923    -0.38600
O2400       O  0.94882975  0.38966569  0.54212964    -0.38600
O2401       O  0.89721924  0.27335602  0.51810069    -0.39300
O2402       O  0.88511857  0.29571520  0.48868523    -0.39300
C2403       C  0.95072322  0.25473363  0.42046464    -0.11600
C2404       C  0.94499762  0.25634942  0.44503873     0.05400
C2405       C  0.93035918  0.23804546  0.45495595    -0.06900
C2406       C  0.92106547  0.21964190  0.44018007    -0.07700
C2407       C  0.92615859  0.21867768  0.41562575    -0.02200
C2408       C  0.94151360  0.23623103  0.40579631     0.04600
N2409       N  0.94789714  0.23576585  0.38097975     0.67100
H2410       H  0.96195923  0.26833192  0.41223309     0.16000
H2411       H  0.90937128  0.20611098  0.44791514     0.15700
N2412       N  0.92471170  0.23733393  0.47988072     0.74800
O2413       O  0.93697967  0.24959631  0.36678499    -0.38600
O2414       O  0.96848829  0.22814371  0.37523987    -0.38600
O2415       O  0.90289988  0.23930626  0.48571451    -0.39300
O2416       O  0.93861679  0.22585726  0.49358384    -0.39300
C2417       C  0.01799159  0.30883901  0.43505130    -0.11600
C2418       C  0.00381434  0.32236155  0.45120469     0.05400
C2419       C  0.01079117  0.34666319  0.45606530    -0.06900
C2420       C  0.03029085  0.35686862  0.44369406    -0.07700
C2421       C  0.04348916  0.34342633  0.42687031    -0.02200
C2422       C  0.03755132  0.31898017  0.42306452     0.04600
N2423       N  0.05069446  0.30419206  0.40658803     0.67100
H2424       H  0.01376558  0.29008266  0.43124812     0.16000
H2425       H  0.03499167  0.37561631  0.44702381     0.15700
N2426       N  0.99842063  0.36158058  0.47304118     0.74800
O2427       O  0.04225095  0.30080054  0.38574333    -0.38600
O2428       O  0.06543299  0.28910023  0.41487276    -0.38600
O2429       O  0.00794159  0.36502978  0.49342319    -0.39300
O2430       O  0.98385842  0.37710605  0.46525779    -0.39300
C2431       C  0.95424918  0.52583689  0.32149306    -0.11600
C2432       C  0.94208442  0.51238707  0.30360364     0.05400
C2433       C  0.91787140  0.51876020  0.29825064    -0.06900
C2434       C  0.90636538  0.53689023  0.31171580    -0.07700
C2435       C  0.91844063  0.54949837  0.33004039    -0.02200
C2436       C  0.94284749  0.54431639  0.33443772     0.04600
N2437       N  0.95639285  0.55739352  0.35212879     0.67100
H2438       H  0.97289916  0.52199486  0.32565724     0.16000
H2439       H  0.88774037  0.54118242  0.30782318     0.15700
N2440       N  0.90433970  0.50715896  0.27954569     0.74800
O2441       O  0.95967783  0.54797522  0.37240970    -0.38600
O2442       O  0.97074120  0.57359404  0.34527105    -0.38600
O2443       O  0.88868002  0.49173481  0.28526006    -0.39300
O2444       O  0.90204721  0.51790778  0.25979201    -0.39300
C2445       C  0.92351869  0.45474504  0.23505308    -0.11600
C2446       C  0.94799639  0.45024556  0.23962061     0.05400
C2447       C  0.96037627  0.43432969  0.22384111    -0.06900
C2448       C  0.94799444  0.42288967  0.20488578    -0.07700
C2449       C  0.92359243  0.42728796  0.20091340    -0.02200
C2450       C  0.91141448  0.44368768  0.21592708     0.04600
N2451       N  0.88683896  0.44982424  0.21177127     0.67100
H2452       H  0.91333571  0.46681605  0.24653646     0.16000
H2453       H  0.95752029  0.41049607  0.19311655     0.15700
N2454       N  0.98546746  0.42971600  0.22610029     0.74800
O2455       O  0.87083130  0.44024708  0.22458674    -0.38600
O2456       O  0.88223784  0.46945704  0.20146173    -0.38600
O2457       O  0.99181296  0.40846699  0.23087488    -0.39300
O2458       O  0.99988663  0.44299743  0.21475152    -0.39300
C2459       C  0.00660985  0.45549869  0.33303331    -0.11600
C2460       C  0.00661284  0.45182949  0.30794946     0.05400
C2461       C  0.02541281  0.43780140  0.29790168    -0.06900
C2462       C  0.04309849  0.42778322  0.31278450    -0.07700
C2463       C  0.04291160  0.43147047  0.33770108    -0.02200
C2464       C  0.02437483  0.44556679  0.34783438     0.04600
N2465       N  0.02332085  0.45029849  0.37307127     0.67100
H2466       H  0.99249804  0.46600997  0.34147325     0.16000
H2467       H  0.05717855  0.41689031  0.30475069     0.15700
N2468       N  0.02730869  0.43342787  0.27272767     0.74800
O2469       O  0.03131896  0.47019924  0.38097161    -0.38600
O2470       O  0.00817557  0.43891993  0.38546753    -0.38600
O2471       O  0.04092433  0.44695461  0.26071501    -0.39300
O2472       O  0.02369115  0.41216807  0.26524626    -0.39300
C2473       C  0.80749764  0.46178801  0.51707213    -0.11600
C2474       C  0.79403016  0.44706428  0.50133973     0.05400
C2475       C  0.79180735  0.42216430  0.50648181    -0.06900
C2476       C  0.80360001  0.41262891  0.52638840    -0.07700
C2477       C  0.81779641  0.42721418  0.54128929    -0.02200
C2478       C  0.81934061  0.45214590  0.53688357     0.04600
N2479       N  0.83354764  0.46784866  0.55170697     0.67100
H2480       H  0.80914298  0.48097940  0.51386203     0.16000
H2481       H  0.80221098  0.39345822  0.52988680     0.15700
N2482       N  0.77838120  0.40583483  0.49170578     0.74800
O2483       O  0.85436071  0.47351928  0.54471646    -0.38600
O2484       O  0.82302986  0.48144255  0.56664736    -0.38600
O2485       O  0.78932708  0.39470419  0.47515265    -0.39300
O2486       O  0.76029169  0.39587380  0.50100375    -0.39300
C2487       C  0.83131175  0.53989445  0.43819564    -0.11600
C2488       C  0.82595921  0.54547365  0.41443943     0.05400
C2489       C  0.80727770  0.53316921  0.40249372    -0.06900
C2490       C  0.79423337  0.51512348  0.41444984    -0.07700
C2491       C  0.79966890  0.50895413  0.43847155    -0.02200
C2492       C  0.81855872  0.52193435  0.45030196     0.04600
N2493       N  0.82496811  0.51783861  0.47477519     0.67100
H2494       H  0.84551552  0.54971077  0.44750807     0.16000
H2495       H  0.78001705  0.50574166  0.40476811     0.15700
N2496       N  0.80142784  0.53921775  0.37825924     0.74800
O2497       O  0.84359026  0.50560526  0.47903602    -0.38600
O2498       O  0.81795434  0.53282575  0.49047254    -0.38600
O2499       O  0.81432777  0.53095423  0.36148148    -0.39300
O2500       O  0.78881979  0.55770424  0.37446041    -0.39300
C2501       C  0.69510741  0.42541629  0.43642816    -0.11600
C2502       C  0.69033463  0.43323324  0.41320915     0.05400
C2503       C  0.70462411  0.45158480  0.40339322    -0.06900
C2504       C  0.72390969  0.46118642  0.41654644    -0.07700
C2505       C  0.72996182  0.45244294  0.43940129    -0.02200
C2506       C  0.71476441  0.43448054  0.44952681     0.04600
N2507       N  0.71944357  0.42369981  0.47218136     0.67100
H2508       H  0.68427625  0.41105309  0.44393567     0.16000
H2509       H  0.73484115  0.47488590  0.40810740     0.15700
N2510       N  0.70047589  0.46008083  0.37965473     0.74800
O2511       O  0.70940960  0.43259312  0.49054360    -0.38600
O2512       O  0.72443812  0.40150727  0.47209853    -0.38600
O2513       O  0.69044320  0.48028549  0.37707723    -0.39300
O2514       O  0.71297299  0.45158870  0.36268923    -0.39300
C2515       C  0.83319880  0.25716350  0.30280149    -0.11600
C2516       C  0.80845339  0.26061681  0.30657750     0.05400
C2517       C  0.79650273  0.24493276  0.32269478    -0.06900
C2518       C  0.80935719  0.22649537  0.33418301    -0.07700
C2519       C  0.83399519  0.22307608  0.33008453    -0.02200
C2520       C  0.84595205  0.23883713  0.31431209     0.04600
N2521       N  0.87102607  0.23641518  0.30937689     0.67100
H2522       H  0.84299922  0.26896612  0.29088510     0.16000
H2523       H  0.79995831  0.21459869  0.34633524     0.15700
N2524       N  0.77124586  0.24655073  0.32702703     0.74800
O2525       O  0.87727904  0.22535064  0.29048274    -0.38600
O2526       O  0.88551041  0.25130592  0.31889987    -0.38600
O2527       O  0.75747788  0.23158853  0.31658407    -0.39300
O2528       O  0.76421182  0.25651258  0.34624546    -0.39300
C2529       C  0.73006543  0.31056725  0.31678306    -0.11600
C2530       C  0.74611598  0.32461017  0.30335387     0.05400
C2531       C  0.74091043  0.34953241  0.30062847    -0.06900
C2532       C  0.72020734  0.35948392  0.31120780    -0.07700
C2533       C  0.70434685  0.34532646  0.32460934    -0.02200
C2534       C  0.70945480  0.32057487  0.32732374     0.04600
N2535       N  0.69431103  0.30531170  0.34120997     0.67100
H2536       H  0.73343192  0.29148436  0.31912852     0.16000
H2537       H  0.71665462  0.37858965  0.30924052     0.15700
N2538       N  0.75687508  0.36546599  0.28843012     0.74800
O2539       O  0.67947896  0.29171229  0.33039620    -0.38600
O2540       O  0.70093743  0.29991999  0.36218164    -0.38600
O2541       O  0.75105507  0.37270167  0.26779296    -0.39300
O2542       O  0.77147366  0.37796588  0.30078777    -0.39300
C2543       C  0.80632071  0.34491731  0.23689615    -0.11600
C2544       C  0.80915715  0.32005540  0.24064418     0.05400
C2545       C  0.82359833  0.30679045  0.22412969    -0.06900
C2546       C  0.83474171  0.31863277  0.20487297    -0.07700
C2547       C  0.83202748  0.34350989  0.20162473    -0.02200
C2548       C  0.81756429  0.35663527  0.21783860     0.04600
N2549       N  0.81402664  0.38198235  0.21535096     0.67100
H2550       H  0.79561467  0.35567989  0.24917758     0.16000
H2551       H  0.84584476  0.30836373  0.19249896     0.15700
N2552       N  0.82680026  0.28131397  0.22599985     0.74800
O2553       O  0.79500245  0.38921553  0.20533923    -0.38600
O2554       O  0.82526629  0.39619941  0.22928748    -0.38600
O2555       O  0.81480341  0.26762535  0.21216516    -0.39300
O2556       O  0.84618874  0.27354371  0.23485387    -0.39300
C2557       C  0.08708865  0.31606774  0.67321588    -0.11600
C2558       C  0.07467256  0.33069075  0.65700691     0.05400
C2559       C  0.05038983  0.32563020  0.65166786    -0.06900
C2560       C  0.03843529  0.30740651  0.66408065    -0.07700
C2561       C  0.05025189  0.29414465  0.68187513    -0.02200
C2562       C  0.07505622  0.29789704  0.68572535     0.04600
N2563       N  0.08802423  0.28432518  0.70311174     0.67100
H2564       H  0.10599642  0.31939785  0.67682487     0.16000
H2565       H  0.01931070  0.30482687  0.66110943     0.15700
N2566       N  0.03743312  0.33924904  0.63426729     0.74800
O2567       O  0.09992985  0.26623840  0.69608701    -0.38600
O2568       O  0.09323225  0.29410028  0.72305145    -0.38600
O2569       O  0.03274120  0.32964691  0.61412002    -0.39300
O2570       O  0.02547385  0.35737751  0.64108887    -0.39300
C2571       C  0.95828961  0.59249495  0.67478853    -0.11600
C2572       C  0.94867533  0.57984847  0.65508096     0.05400
C2573       C  0.95744408  0.55658015  0.64969180    -0.06900
C2574       C  0.97609338  0.54691366  0.66345986    -0.07700
C2575       C  0.98688447  0.56002181  0.68245437    -0.02200
C2576       C  0.97754409  0.58327478  0.68807962     0.04600
N2577       N  0.98788794  0.59858612  0.70617971     0.67100
H2578       H  0.95148809  0.61032202  0.67919576     0.16000
H2579       H  0.98233175  0.52899592  0.65883379     0.15700
N2580       N  0.94791477  0.54245080  0.63023151     0.74800
O2581       O  0.00245067  0.61478170  0.69974612    -0.38600
O2582       O  0.97668838  0.60144824  0.72568569    -0.38600
O2583       O  0.95976522  0.54114893  0.61096864    -0.39300
O2584       O  0.93317552  0.52578633  0.63488015    -0.39300
C2585       C  0.07199233  0.48954288  0.69391192    -0.11600
C2586       C  0.04815726  0.49530961  0.68716848     0.05400
C2587       C  0.03657505  0.48019249  0.66972421    -0.06900
C2588       C  0.04910133  0.46109940  0.65892064    -0.07700
C2589       C  0.07288290  0.45631915  0.66513343    -0.02200
C2590       C  0.08424042  0.47017346  0.68309333     0.04600
N2591       N  0.10832028  0.46461868  0.69022507     0.67100
H2592       H  0.08142975  0.50038721  0.70723429     0.16000
H2593       H  0.04030074  0.45014457  0.64520231     0.15700
N2594       N  0.01205810  0.48335949  0.66275409     0.74800
O2595       O  0.12562759  0.47293085  0.67821904    -0.38600
O2596       O  0.11186786  0.44657682  0.70340849    -0.38600
O2597       O  0.00776342  0.49176861  0.64220055    -0.39300
O2598       O  0.99637656  0.47008551  0.67233316    -0.39300
C2599       C  0.04231558  0.58709063  0.75157863    -0.11600
C2600       C  0.04829747  0.56261466  0.74726640     0.05400
C2601       C  0.06540429  0.55168152  0.76274023    -0.06900
C2602       C  0.07617693  0.56515728  0.78126134    -0.07700
C2603       C  0.07055890  0.58942001  0.78478599    -0.02200
C2604       C  0.05339807  0.60044023  0.77010978     0.04600
N2605       N  0.04765748  0.62535781  0.77369841     0.67100
H2606       H  0.02941017  0.59616032  0.74023475     0.16000
H2607       H  0.08948526  0.55673316  0.79270400     0.15700
N2608       N  0.07238642  0.52703212  0.76015809     0.74800
O2609       O  0.06088675  0.64117065  0.76427228    -0.38600
O2610       O  0.03439462  0.63132113  0.79112830    -0.38600
O2611       O  0.09266187  0.52246481  0.75106460    -0.39300
O2612       O  0.06301731  0.51171507  0.77391568    -0.39300
C2613       C  0.28554407  0.58607902  0.55200656    -0.11600
C2614       C  0.28646836  0.58622683  0.57714342     0.05400
C2615       C  0.26742597  0.57537934  0.58992688    -0.06900
C2616       C  0.24831501  0.56436464  0.57743353    -0.07700
C2617       C  0.24734152  0.56407650  0.55220260    -0.02200
C2618       C  0.26633663  0.57524404  0.53947242     0.04600
N2619       N  0.26716569  0.57506469  0.51385322     0.67100
H2620       H  0.29990376  0.59454285  0.54197377     0.16000
H2621       H  0.23391724  0.55622415  0.58766970     0.15700
N2622       N  0.26707163  0.57530381  0.61559051     0.74800
O2623       O  0.26133239  0.59400407  0.50291031    -0.38600
O2624       O  0.28091767  0.56016829  0.50351861    -0.38600
O2625       O  0.25342335  0.58993235  0.62642583    -0.39300
O2626       O  0.27380954  0.55655039  0.62633250    -0.39300
C2627       C  0.16051190  0.46458015  0.55389004    -0.11600
C2628       C  0.16203574  0.46383457  0.57893967     0.05400
C2629       C  0.17437332  0.48256221  0.59128236    -0.06900
C2630       C  0.18505594  0.50129018  0.57835968    -0.07700
C2631       C  0.18380665  0.50194072  0.55314874    -0.02200
C2632       C  0.17139386  0.48311873  0.54093463     0.04600
N2633       N  0.17031246  0.48166006  0.51538856     0.67100
H2634       H  0.15101212  0.45035600  0.54421795     0.16000
H2635       H  0.19431707  0.51552072  0.58824179     0.15700
N2636       N  0.17668920  0.48274774  0.61684936     0.74800
O2637       O  0.18661720  0.47012995  0.50454030    -0.38600
O2638       O  0.14994882  0.48338354  0.50550924    -0.38600
O2639       O  0.19639140  0.47619549  0.62599413    -0.39300
O2640       O  0.16294669  0.49616722  0.62904323    -0.39300
C2641       C  0.25609762  0.67574120  0.68651083    -0.11600
C2642       C  0.25406005  0.70088288  0.68496639     0.05400
C2643       C  0.27205252  0.71380904  0.67242660    -0.06900
C2644       C  0.29088914  0.70130365  0.66124700    -0.07700
C2645       C  0.29252646  0.67619203  0.66268169    -0.02200
C2646       C  0.27504367  0.66340537  0.67571447     0.04600
N2647       N  0.27619296  0.63784107  0.67834048     0.67100
H2648       H  0.24259844  0.66530511  0.69581602     0.16000
H2649       H  0.30431855  0.71126278  0.65129789     0.15700
N2650       N  0.27231059  0.73952451  0.67147604     0.74800
O2651       O  0.26271992  0.62473483  0.66535861    -0.38600
O2652       O  0.28390309  0.62955153  0.69792891    -0.38600
O2653       O  0.28501639  0.75090959  0.68666040    -0.39300
O2654       O  0.26808434  0.74931023  0.65157407    -0.39300
C2655       C  0.16553872  0.70501853  0.75240118    -0.11600
C2656       C  0.18796291  0.69645086  0.74387377     0.05400
C2657       C  0.19775499  0.67551006  0.75489561    -0.06900
C2658       C  0.18557498  0.66427508  0.77365056    -0.07700
C2659       C  0.16355697  0.67290680  0.78172162    -0.02200
C2660       C  0.15333469  0.69326801  0.77106071     0.04600
N2661       N  0.13051754  0.70193783  0.77919570     0.67100
H2662       H  0.15731669  0.72077363  0.74451754     0.16000
H2663       H  0.19326504  0.64836720  0.78181930     0.15700
N2664       N  0.21984328  0.66481340  0.74738962     0.74800
O2665       O  0.12967794  0.71451502  0.79821859    -0.38600
O2666       O  0.11163494  0.69139164  0.77195246    -0.38600
O2667       O  0.23815155  0.66772852  0.76059760    -0.39300
O2668       O  0.21884505  0.64645019  0.73379916    -0.39300
C2669       C  0.17613464  0.77745113  0.70003846    -0.11600
C2670       C  0.19036525  0.76295564  0.68490168     0.05400
C2671       C  0.19312169  0.76983487  0.66056590    -0.06900
C2672       C  0.18124240  0.79021937  0.65202900    -0.07700
C2673       C  0.16645106  0.80397857  0.66700772    -0.02200
C2674       C  0.16420285  0.79776373  0.69133501     0.04600
N2675       N  0.14910077  0.81117389  0.70724206     0.67100
H2676       H  0.17393000  0.77284139  0.71877796     0.16000
H2677       H  0.18284997  0.79484688  0.63321403     0.15700
N2678       N  0.20671597  0.75596960  0.64369404     0.74800
O2679       O  0.12812241  0.80345458  0.71121061    -0.38600
O2680       O  0.15873848  0.82551017  0.72221816    -0.38600
O2681       O  0.19559823  0.74120141  0.63023644    -0.39300
O2682       O  0.22618021  0.76483945  0.63622825    -0.39300
C2683       C  0.15476513  0.56719925  0.45687602    -0.11600
C2684       C  0.16583917  0.58814338  0.44854473     0.05400
C2685       C  0.18753796  0.59586639  0.45924952    -0.06900
C2686       C  0.19727278  0.58307178  0.47845079    -0.07700
C2687       C  0.18576820  0.56255901  0.48777535    -0.02200
C2688       C  0.16423024  0.55451189  0.47636069     0.04600
N2689       N  0.15138465  0.53368415  0.48396279     0.67100
H2690       H  0.13804325  0.56111941  0.44869422     0.16000
H2691       H  0.21384681  0.58978456  0.48635390     0.15700
N2692       N  0.19985157  0.61691177  0.45128030     0.74800
O2693       O  0.13380490  0.53654661  0.49800425    -0.38600
O2694       O  0.15170753  0.51529568  0.47039575    -0.38600
O2695       O  0.19820422  0.63602465  0.46369444    -0.39300
O2696       O  0.21775442  0.61426561  0.43763054    -0.39300
C2697       C  0.09212099  0.69376202  0.46839474    -0.11600
C2698       C  0.07878846  0.67893103  0.45277964     0.05400
C2699       C  0.05390396  0.67614849  0.45663575    -0.06900
C2700       C  0.04304957  0.68732330  0.47642684    -0.07700
C2701       C  0.05631660  0.70174625  0.49265677    -0.02200
C2702       C  0.08126819  0.70527707  0.48812311     0.04600
N2703       N  0.09627404  0.71966075  0.50351573     0.67100
H2704       H  0.11125948  0.69610211  0.46544689     0.16000
H2705       H  0.02392305  0.68460299  0.47901789     0.15700
N2706       N  0.03933170  0.66168609  0.44092249     0.74800
O2707       O  0.10950549  0.70911406  0.51856738    -0.38600
O2708       O  0.10231384  0.74043238  0.49661821    -0.38600
O2709       O  0.03350594  0.64072406  0.44739690    -0.39300
O2710       O  0.02672117  0.67203618  0.42522171    -0.39300
C2711       C  0.98793901  0.67309140  0.54603235    -0.11600
C2712       C  0.98836215  0.69829667  0.54917909     0.05400
C2713       C  0.96885275  0.70927258  0.56138249    -0.06900
C2714       C  0.95020123  0.69503650  0.57063578    -0.07700
C2715       C  0.95019039  0.66988496  0.56791812    -0.02200
C2716       C  0.96931526  0.65891447  0.55525596     0.04600
N2717       N  0.97041210  0.63337571  0.55171643     0.67100
H2718       H  0.00257876  0.66404669  0.53683757     0.16000
H2719       H  0.93566782  0.70373178  0.58033362     0.15700
N2720       N  0.96721413  0.73475633  0.56454386     0.74800
O2721       O  0.98423845  0.62128365  0.56496309    -0.38600
O2722       O  0.96443276  0.62473328  0.53148641    -0.38600
O2723       O  0.95449623  0.74643364  0.54990073    -0.39300
O2724       O  0.97000198  0.74319866  0.58548941    -0.39300
C2725       C  0.05177879  0.79836250  0.58275999    -0.11600
C2726       C  0.07688712  0.79966241  0.58163194     0.05400
C2727       C  0.08957288  0.78125229  0.56949812    -0.06900
C2728       C  0.07697244  0.76267127  0.55797484    -0.07700
C2729       C  0.05173255  0.76150300  0.55848801    -0.02200
C2730       C  0.03912343  0.77946169  0.57155342     0.04600
N2731       N  0.01368764  0.77877745  0.57440325     0.67100
H2732       H  0.04191925  0.81202229  0.59272154     0.16000
H2733       H  0.08725259  0.74882080  0.54876649     0.15700
N2734       N  0.11525231  0.78087493  0.56874203     0.74800
O2735       O  0.00567890  0.77275989  0.59465191    -0.38600
O2736       O  0.00094003  0.79215042  0.56131781    -0.38600
O2737       O  0.12628741  0.76647249  0.58227694    -0.39300
O2738       O  0.12560474  0.78813614  0.55001423    -0.39300
C2739       C  0.90680648  0.20980094  0.66459326    -0.11600
C2740       C  0.90520121  0.18522350  0.66969134     0.05400
C2741       C  0.92295330  0.17449012  0.68430437    -0.06900
C2742       C  0.94164587  0.18861678  0.69389859    -0.07700
C2743       C  0.94271946  0.21340877  0.68950750    -0.02200
C2744       C  0.92518431  0.22398587  0.67450747     0.04600
N2745       N  0.92565470  0.24914551  0.66920220     0.67100
H2746       H  0.89368412  0.21801216  0.65278830     0.16000
H2747       H  0.95450310  0.18045424  0.70602368     0.15700
N2748       N  0.92175424  0.14954796  0.69038498     0.74800
O2749       O  0.93467416  0.25577896  0.64956471    -0.38600
O2750       O  0.91109696  0.26299306  0.67986561    -0.38600
O2751       O  0.93588696  0.13493066  0.68018257    -0.39300
O2752       O  0.91236413  0.14376890  0.71012453    -0.39300
C2753       C  0.65626422  0.27949436  0.69871579    -0.11600
C2754       C  0.67791698  0.27148080  0.68821457     0.05400
C2755       C  0.68637114  0.28400218  0.66774766    -0.06900
C2756       C  0.67265997  0.30256702  0.65774773    -0.07700
C2757       C  0.65064985  0.30943729  0.66764763    -0.02200
C2758       C  0.64274238  0.29818631  0.68873215     0.04600
N2759       N  0.62081276  0.30509388  0.70008381     0.67100
H2760       H  0.64924180  0.27089674  0.71461340     0.16000
H2761       H  0.67901402  0.31134159  0.64163255     0.15700
N2762       N  0.70860625  0.27837199  0.65644093     0.74800
O2763       O  0.60217583  0.29258150  0.69616551    -0.38600
O2764       O  0.62188084  0.31802763  0.71886506    -0.38600
O2765       O  0.70790466  0.26752351  0.63638642    -0.39300
O2766       O  0.72657706  0.29154005  0.66134826    -0.39300
C2767       C  0.65379364  0.21506090  0.75522600    -0.11600
C2768       C  0.67683635  0.20677593  0.74866019     0.05400
C2769       C  0.68681397  0.18746779  0.76205365    -0.06900
C2770       C  0.67372277  0.17714395  0.78090168    -0.07700
C2771       C  0.65078458  0.18543713  0.78707902    -0.02200
C2772       C  0.64085184  0.20470169  0.77411163     0.04600
N2773       N  0.61780533  0.21433934  0.78001132     0.67100
H2774       H  0.64549152  0.22975532  0.74559552     0.16000
H2775       H  0.68157501  0.16239124  0.79085220     0.15700
N2776       N  0.71030251  0.17818838  0.75741573     0.74800
O2777       O  0.61681874  0.23293121  0.79326732    -0.38600
O2778       O  0.60013893  0.20932083  0.76653396    -0.38600
O2779       O  0.72722734  0.18429222  0.77141399    -0.39300
O2780       O  0.71213089  0.15867832  0.74565979    -0.39300
C2781       C  0.74315651  0.18191352  0.69054611    -0.11600
C2782       C  0.74040500  0.20674961  0.68649707     0.05400
C2783       C  0.75753614  0.21843497  0.67176836    -0.06900
C2784       C  0.77643149  0.20524134  0.66153654    -0.07700
C2785       C  0.77909842  0.18062215  0.66590346    -0.02200
C2786       C  0.76225046  0.16890789  0.68063890     0.04600
N2787       N  0.76453264  0.14399042  0.68643251     0.67100
H2788       H  0.73036425  0.17228042  0.70153832     0.16000
H2789       H  0.78932415  0.21437685  0.65020160     0.15700
N2790       N  0.75683950  0.24369253  0.66736007     0.74800
O2791       O  0.75133948  0.12882452  0.67555318    -0.38600
O2792       O  0.77306221  0.13859945  0.70671534    -0.38600
O2793       O  0.76917833  0.25746989  0.68079420    -0.39300
O2794       O  0.75237868  0.25034788  0.64621942    -0.39300
C2795       C  0.45560775  0.17906932  0.58439220    -0.11600
C2796       C  0.44591342  0.15979478  0.57147122     0.05400
C2797       C  0.45443306  0.15451673  0.54834656    -0.06900
C2798       C  0.47287431  0.16877436  0.53848435    -0.07700
C2799       C  0.48290884  0.18859711  0.55146917    -0.02200
C2800       C  0.47374585  0.19342540  0.57481203     0.04600
N2801       N  0.48175816  0.21319011  0.58924019     0.67100
H2802       H  0.44882722  0.18317849  0.60222375     0.16000
H2803       H  0.47923621  0.16429532  0.52061674     0.15700
N2804       N  0.44456867  0.13458237  0.53504394     0.74800
O2805       O  0.46771072  0.23092232  0.59132100    -0.38600
O2806       O  0.49627135  0.20894178  0.60616396    -0.38600
O2807       O  0.42453929  0.13705533  0.52461330    -0.39300
O2808       O  0.45202008  0.11358417  0.53940236    -0.39300
C2809       C  0.53177992  0.17739110  0.47583952    -0.11600
C2810       C  0.54236302  0.19805093  0.48636151     0.05400
C2811       C  0.56371368  0.20735710  0.47569191    -0.06900
C2812       C  0.57444644  0.19491331  0.45641998    -0.07700
C2813       C  0.56431946  0.17363281  0.44715279    -0.02200
C2814       C  0.54245489  0.16525050  0.45657528     0.04600
N2815       N  0.53125823  0.14377834  0.44753825     0.67100
H2816       H  0.51526598  0.16995856  0.48296069     0.16000
H2817       H  0.59114627  0.20162936  0.44897003     0.15700
N2818       N  0.57512025  0.22906357  0.48396872     0.74800
O2819       O  0.51379391  0.14572015  0.43314864    -0.38600
O2820       O  0.53352993  0.12454652  0.45925341    -0.38600
O2821       O  0.59430348  0.22739593  0.49603828    -0.39300
O2822       O  0.57132345  0.24822481  0.47251617    -0.39300
C2823       C  0.56601974  0.26215628  0.54784668    -0.11600
C2824       C  0.54188939  0.25710399  0.55346826     0.05400
C2825       C  0.53015940  0.27233348  0.57035047    -0.06900
C2826       C  0.54262483  0.29171438  0.58100448    -0.07700
C2827       C  0.56647569  0.29675565  0.57491928    -0.02200
C2828       C  0.57823718  0.28172994  0.55817917     0.04600
N2829       N  0.60250447  0.28614404  0.55113922     0.67100
H2830       H  0.57573973  0.25078237  0.53529884     0.16000
H2831       H  0.53345844  0.30323213  0.59389429     0.15700
N2832       N  0.50555299  0.26918087  0.57666378     0.74800
O2833       O  0.61906593  0.27401980  0.56074259    -0.38600
O2834       O  0.60627072  0.29559000  0.53096729    -0.38600
O2835       O  0.50092064  0.26396576  0.59816276    -0.39300
O2836       O  0.48982612  0.28018451  0.56461654    -0.39300
C2837       C  0.66815189  0.05492385  0.47824432    -0.11600
C2838       C  0.68097937  0.07021689  0.49395526     0.05400
C2839       C  0.68182157  0.09524021  0.48905744    -0.06900
C2840       C  0.66963944  0.10420787  0.46900903    -0.07700
C2841       C  0.65633957  0.08888515  0.45380312    -0.02200
C2842       C  0.65586677  0.06392503  0.45841486     0.04600
N2843       N  0.64245681  0.04740479  0.44372157     0.67100
H2844       H  0.66744192  0.03566575  0.48139952     0.16000
H2845       H  0.67003429  0.12343363  0.46560550     0.15700
N2846       N  0.69367845  0.11212581  0.50466411     0.74800
O2847       O  0.62183948  0.04101044  0.45068156    -0.38600
O2848       O  0.65378833  0.03369213  0.42950750    -0.38600
O2849       O  0.71286691  0.12183674  0.49750007    -0.39300
O2850       O  0.68130139  0.12312483  0.52025397    -0.39300
C2851       C  0.69075060  0.99828319  0.57693180    -0.11600
C2852       C  0.68189262  0.00564985  0.55446370     0.05400
C2853       C  0.66236870  0.99236956  0.54416562    -0.06900
C2854       C  0.65220144  0.97294800  0.55663746    -0.07700
C2855       C  0.66078532  0.96637217  0.57929800    -0.02200
C2856       C  0.68045213  0.97902052  0.58929214     0.04600
N2857       N  0.69017329  0.97274164  0.61214272     0.67100
H2858       H  0.70563800  0.00778394  0.58540928     0.16000
H2859       H  0.63715959  0.96316034  0.54874038     0.15700
N2860       N  0.65243538  0.99802214  0.52120411     0.74800
O2861       O  0.70858180  0.95948812  0.61283410    -0.38600
O2862       O  0.68527198  0.98583684  0.63014955    -0.38600
O2863       O  0.65756879  0.98460698  0.50348775    -0.39300
O2864       O  0.63333245  0.01025313  0.52043311    -0.39300
C2865       C  0.78250262  0.09201816  0.55575691    -0.11600
C2866       C  0.78469987  0.08913933  0.58060114     0.05400
C2867       C  0.76780439  0.07469290  0.59268205    -0.06900
C2868       C  0.74874657  0.06406943  0.57993955    -0.07700
C2869       C  0.74593258  0.06749340  0.55511970    -0.02200
C2870       C  0.76347103  0.08129826  0.54290584     0.04600
N2871       N  0.76291429  0.08413766  0.51746397     0.67100
H2872       H  0.79547631  0.10302842  0.54631450     0.16000
H2873       H  0.73571645  0.05350025  0.58978099     0.15700
N2874       N  0.76961485  0.07061897  0.61791261     0.74800
O2875       O  0.75666468  0.10426821  0.50919876    -0.38600
O2876       O  0.77614753  0.07068062  0.50475946    -0.38600
O2877       O  0.75578976  0.08200584  0.63192085    -0.39300
O2878       O  0.77900833  0.05123167  0.62497274    -0.39300
C2879       C  0.46310772  0.09652229  0.67674141    -0.11600
C2880       C  0.44680699  0.08059906  0.66571265     0.05400
C2881       C  0.45044431  0.05552229  0.66766776    -0.06900
C2882       C  0.47065393  0.04689851  0.67995049    -0.07700
C2883       C  0.48730286  0.06283929  0.69064393    -0.02200
C2884       C  0.48324810  0.08798132  0.68906747     0.04600
N2885       N  0.50012005  0.10524886  0.69829005     0.67100
H2886       H  0.46054655  0.11582968  0.67510822     0.16000
H2887       H  0.47332437  0.02757864  0.68114268     0.15700
N2888       N  0.43419370  0.03855622  0.65687012     0.74800
O2889       O  0.51538639  0.11404921  0.68409286    -0.38600
O2890       O  0.49483440  0.11693148  0.71712161    -0.38600
O2891       O  0.43997955  0.02851980  0.63727660    -0.39300
O2892       O  0.41851064  0.02866745  0.66985471    -0.39300
C2893       C  0.53651179  0.08937763  0.76336376    -0.11600
C2894       C  0.54528602  0.06610592  0.75757527     0.05400
C2895       C  0.56320285  0.05599513  0.77262618    -0.06900
C2896       C  0.57329464  0.06980758  0.79116104    -0.07700
C2897       C  0.56546855  0.09323462  0.79565352    -0.02200
C2898       C  0.54637094  0.10280133  0.78242908     0.04600
N2899       N  0.53697996  0.12607881  0.78842332     0.67100
H2900       H  0.52233479  0.09748882  0.75283210     0.16000
H2901       H  0.58767881  0.06231264  0.80194973     0.15700
N2902       N  0.57140824  0.03176846  0.76990361     0.74800
O2903       O  0.54695610  0.14463065  0.78001959    -0.38600
O2904       O  0.52357946  0.12824080  0.80657758    -0.38600
O2905       O  0.59274481  0.02850275  0.76301306    -0.39300
O2906       O  0.56165062  0.01573253  0.78254324    -0.39300
C2907       C  0.53857040  0.98427997  0.68382007    -0.11600
C2908       C  0.55244789  0.00301255  0.69398993     0.05400
C2909       C  0.57780056  0.00152564  0.69259815    -0.06900
C2910       C  0.58856762  0.98194058  0.68083130    -0.07700
C2911       C  0.57472611  0.96369490  0.66997568    -0.02200
C2912       C  0.54938600  0.96466028  0.67200059     0.04600
N2913       N  0.53425413  0.94635161  0.66172345     0.67100
H2914       H  0.51910811  0.98495115  0.68488163     0.16000
H2915       H  0.60801560  0.98139051  0.67942322     0.15700
N2916       N  0.59306294  0.02042192  0.70136154     0.74800
O2917       O  0.52580577  0.93031727  0.67526880    -0.38600
O2918       O  0.52359710  0.95059430  0.64217261    -0.38600
O2919       O  0.60667508  0.01605776  0.71894353    -0.39300
O2920       O  0.59903409  0.03691581  0.68709629    -0.39300
C2921       C  0.07347818  0.06282340  0.41883525    -0.11600
C2922       C  0.06857231  0.08708270  0.41450470     0.05400
C2923       C  0.05493212  0.10044862  0.43122377    -0.06900
C2924       C  0.04594328  0.08925046  0.45167694    -0.07700
C2925       C  0.05052472  0.06481647  0.45610100    -0.02200
C2926       C  0.06472643  0.05156773  0.43940606     0.04600
N2927       N  0.06963043  0.02646536  0.44225844     0.67100
H2928       H  0.08444259  0.05263539  0.40626553     0.16000
H2929       H  0.03499425  0.09972821  0.46401229     0.15700
N2930       N  0.05003000  0.12544382  0.42775359     0.74800
O2931       O  0.05681482  0.01129679  0.43095126    -0.38600
O2932       O  0.09025189  0.02021888  0.44938132    -0.38600
O2933       O  0.02956724  0.13149668  0.42003202    -0.39300
O2934       O  0.06278008  0.14092430  0.43872196    -0.39300
C2935       C  0.92233473  0.07785421  0.59679183    -0.11600
C2936       C  0.91100767  0.09590530  0.58351648     0.05400
C2937       C  0.92089677  0.10290984  0.56143717    -0.06900
C2938       C  0.94112994  0.09108172  0.55249620    -0.07700
C2939       C  0.95179164  0.07189244  0.56491655    -0.02200
C2940       C  0.94253679  0.06575726  0.58776895     0.04600
N2941       N  0.95344250  0.04770240  0.60230739     0.67100
H2942       H  0.91540468  0.07313206  0.61431504     0.16000
H2943       H  0.94762055  0.09621053  0.53493189     0.15700
N2944       N  0.91055433  0.12182997  0.54764274     0.74800
O2945       O  0.96800654  0.05432112  0.61855772    -0.38600
O2946       O  0.94310698  0.02750122  0.60415645    -0.38600
O2947       O  0.92095267  0.14210402  0.54749445    -0.39300
O2948       O  0.89655959  0.11629890  0.53053507    -0.39300
C2949       C  0.08422916  0.94381836  0.57119399    -0.11600
C2950       C  0.07094008  0.92611793  0.58316977     0.05400
C2951       C  0.04582918  0.92866353  0.58512494    -0.06900
C2952       C  0.03458436  0.94874630  0.57525408    -0.07700
C2953       C  0.04776954  0.96653756  0.56310394    -0.02200
C2954       C  0.07301723  0.96399144  0.56135906     0.04600
N2955       N  0.08776792  0.98189609  0.55042174     0.67100
H2956       H  0.10363749  0.94224573  0.57006362     0.16000
H2957       H  0.01515706  0.94985759  0.57645950     0.15700
N2958       N  0.03135395  0.91115294  0.59701863     0.74800
O2959       O  0.09804659  0.99737918  0.56375445    -0.38600
O2960       O  0.09628577  0.97765823  0.52981966    -0.38600
O2961       O  0.02381282  0.91591453  0.61789074    -0.39300
O2962       O  0.02020495  0.89564778  0.58443362    -0.39300
C2963       C  0.93348511  0.07811908  0.40722086    -0.11600
C2964       C  0.91680491  0.09340258  0.41847728     0.05400
C2965       C  0.90901034  0.08811996  0.44188733    -0.06900
C2966       C  0.91916782  0.06884740  0.45421270    -0.07700
C2967       C  0.93685052  0.05431561  0.44355838    -0.02200
C2968       C  0.94353103  0.05859398  0.41952358     0.04600
N2969       N  0.96131895  0.04422499  0.40773961     0.67100
H2970       H  0.93889952  0.08154770  0.38887829     0.16000
H2971       H  0.91399494  0.06587529  0.47272256     0.15700
N2972       N  0.89078947  0.10209756  0.45344375     0.74800
O2973       O  0.95448959  0.02756455  0.39363081    -0.38600
O2974       O  0.98239268  0.05249340  0.40575909    -0.38600
O2975       O  0.86959253  0.09389260  0.45394394    -0.39300
O2976       O  0.89697270  0.11806175  0.46860189    -0.39300
C2977       C  0.80756557  0.47373677  0.68508874    -0.11600
C2978       C  0.79109688  0.46045814  0.69896391     0.05400
C2979       C  0.79020151  0.43512221  0.69641118    -0.06900
C2980       C  0.80516854  0.42365831  0.67981827    -0.07700
C2981       C  0.82063619  0.43705947  0.66542943    -0.02200
C2982       C  0.82236993  0.46213029  0.66835563     0.04600
N2983       N  0.83842795  0.47580945  0.65373599     0.67100
H2984       H  0.80810727  0.49326528  0.68651620     0.16000
H2985       H  0.80394749  0.40425490  0.67734538     0.15700
N2986       N  0.77276253  0.42089300  0.70860510     0.74800
O2987       O  0.83132775  0.48290248  0.63344657    -0.38600
O2988       O  0.86072063  0.47517511  0.65808305    -0.38600
O2989       O  0.75426284  0.41411447  0.69713477    -0.39300
O2990       O  0.77955143  0.40872326  0.72640112    -0.39300
C2991       C  0.68228445  0.46032566  0.65923108    -0.11600
C2992       C  0.66905856  0.47708726  0.67292526     0.05400
C2993       C  0.64403092  0.47321207  0.67581481    -0.06900
C2994       C  0.63342276  0.45208434  0.66667378    -0.07700
C2995       C  0.64708495  0.43488831  0.65417700    -0.02200
C2996       C  0.67159607  0.43945509  0.64989386     0.04600
N2997       N  0.68596583  0.42324463  0.63597644     0.67100
H2998       H  0.70144805  0.46272477  0.65657391     0.16000
H2999       H  0.61427108  0.44920988  0.66901470     0.15700
N3000       N  0.62887081  0.49073137  0.68708887     0.74800
O3001       O  0.68964601  0.42800174  0.61417532    -0.38600
O3002       O  0.70047057  0.40954947  0.64670868    -0.38600
O3003       O  0.61689478  0.50469372  0.67389085    -0.39300
O3004       O  0.62173513  0.48710089  0.70824363    -0.39300
C3005       C  0.78461847  0.56338958  0.65563670    -0.11600
C3006       C  0.78176406  0.56899469  0.68029947     0.05400
C3007       C  0.80074549  0.58152019  0.69232686    -0.06900
C3008       C  0.82098152  0.58904490  0.67961640    -0.07700
C3009       C  0.82342792  0.58363665  0.65528137    -0.02200
C3010       C  0.80542495  0.57035453  0.64325093     0.04600
N3011       N  0.80869796  0.56325195  0.61868592     0.67100
H3012       H  0.77099385  0.55301411  0.64608912     0.16000
H3013       H  0.83499107  0.59919924  0.68886254     0.15700
N3014       N  0.80092268  0.58533190  0.71773009     0.74800
O3015       O  0.82321140  0.54642173  0.61384284    -0.38600
O3016       O  0.80246835  0.57744310  0.60222854    -0.38600
O3017       O  0.81282682  0.57094142  0.73053313    -0.39300
O3018       O  0.79686853  0.60629586  0.72578217    -0.39300
C3019       C  0.64388773  0.57484398  0.81529585    -0.11600
C3020       C  0.65428367  0.59618016  0.82401544     0.05400
C3021       C  0.67298374  0.60711629  0.81099858    -0.06900
C3022       C  0.68163480  0.59602071  0.79010504    -0.07700
C3023       C  0.67144453  0.57443583  0.78128793    -0.02200
C3024       C  0.65161121  0.56435797  0.79377224     0.04600
N3025       N  0.63829794  0.54415536  0.78458226     0.67100
H3026       H  0.62861760  0.56708923  0.82455586     0.16000
H3027       H  0.69669115  0.60428473  0.78097147     0.15700
N3028       N  0.68306126  0.62975491  0.81835708     0.74800
O3029       O  0.64148938  0.52373739  0.79387277    -0.38600
O3030       O  0.61889525  0.54807400  0.77344557    -0.38600
O3031       O  0.70333599  0.63000708  0.82863843    -0.39300
O3032       O  0.67574398  0.64868570  0.80830728    -0.39300
C3033       C  0.47125468  0.57621945  0.19771385    -0.11600
C3034       C  0.48142130  0.55657004  0.18506771     0.05400
C3035       C  0.47125684  0.55016385  0.16246574    -0.06900
C3036       C  0.45257893  0.56382729  0.15283942    -0.07700
C3037       C  0.44342909  0.58372157  0.16519448    -0.02200
C3038       C  0.45258914  0.58976675  0.18800791     0.04600
N3039       N  0.44361559  0.60988280  0.20142550     0.67100
H3040       H  0.47803547  0.58167501  0.21522142     0.16000
H3041       H  0.44537123  0.55906826  0.13526972     0.15700
N3042       N  0.47959642  0.53041406  0.14836710     0.74800
O3043       O  0.42874239  0.60601407  0.21802799    -0.38600
O3044       O  0.45580091  0.62913612  0.20200553    -0.38600
O3045       O  0.46691588  0.51148255  0.14804878    -0.39300
O3046       O  0.49187695  0.53528360  0.13002379    -0.39300
C3047       C  0.56783343  0.48667147  0.19736581    -0.11600
C3048       C  0.54756823  0.49545551  0.18501711     0.05400
C3049       C  0.54142742  0.48447759  0.16266921    -0.06900
C3050       C  0.55547736  0.46583752  0.15334149    -0.07700
C3051       C  0.57584033  0.45784835  0.16545674    -0.02200
C3052       C  0.58205133  0.46830599  0.18773500     0.04600
N3053       N  0.60314742  0.46127287  0.20050087     0.67100
H3054       H  0.57324914  0.49437381  0.21450933     0.16000
H3055       H  0.55081702  0.45794800  0.13600399     0.15700
N3056       N  0.52183438  0.49228627  0.14829667     0.74800
O3057       O  0.60086930  0.44714963  0.21797551    -0.38600
O3058       O  0.62141026  0.47483225  0.19975179    -0.38600
O3059       O  0.52680290  0.50386121  0.12954779    -0.39300
O3060       O  0.50286139  0.47973759  0.14852011    -0.39300
C3061       C  0.45508488  0.69620511  0.08971088    -0.11600
C3062       C  0.44807637  0.67382154  0.08050631     0.05400
C3063       C  0.46078622  0.66342759  0.06135451    -0.06900
C3064       C  0.48025594  0.67584505  0.05131243    -0.07700
C3065       C  0.48761471  0.69866513  0.06039736    -0.02200
C3066       C  0.47474099  0.70854079  0.08017353     0.04600
N3067       N  0.48097781  0.73103934  0.09109683     0.67100
H3068       H  0.44544803  0.70397982  0.10481764     0.16000
H3069       H  0.48972017  0.66737695  0.03651072     0.15700
N3070       N  0.45415439  0.64008269  0.05233880     0.74800
O3071       O  0.46816830  0.74911579  0.08624038    -0.38600
O3072       O  0.49213971  0.73073922  0.11088986    -0.38600
O3073       O  0.43636709  0.63816374  0.03828380    -0.39300
O3074       O  0.46145065  0.62162400  0.06323319    -0.39300
C3075       C  0.57605506  0.76467784  0.05625157    -0.11600
C3076       C  0.55099526  0.76303649  0.05944004     0.05400
C3077       C  0.53958883  0.78130406  0.07324430    -0.06900
C3078       C  0.55317916  0.80012878  0.08361182    -0.07700
C3079       C  0.57813813  0.80145913  0.08066942    -0.02200
C3080       C  0.58962605  0.78343734  0.06675745     0.04600
N3081       N  0.61504372  0.78375093  0.06307974     0.67100
H3082       H  0.58539142  0.75099101  0.04584106     0.16000
H3083       H  0.54412679  0.81378832  0.09432010     0.15700
N3084       N  0.51421431  0.78166489  0.07668659     0.74800
O3085       O  0.62811026  0.77023902  0.07570178    -0.38600
O3086       O  0.62301936  0.79108678  0.04324823    -0.38600
O3087       O  0.50639522  0.77821184  0.09761537    -0.39300
O3088       O  0.50155768  0.79375667  0.06233172    -0.39300
C3089       C  0.54851653  0.67329142  0.96070790    -0.11600
C3090       C  0.56835859  0.68519750  0.95094290     0.05400
C3091       C  0.57640952  0.70685040  0.96175004    -0.06900
C3092       C  0.56511899  0.71567295  0.98249161    -0.07700
C3093       C  0.54600388  0.70313124  0.99335418    -0.02200
C3094       C  0.53754850  0.68165290  0.98184273     0.04600
N3095       N  0.51881111  0.66716471  0.99168148     0.67100
H3096       H  0.54236267  0.65648543  0.95258845     0.16000
H3097       H  0.57199811  0.73224095  0.99045673     0.15700
N3098       N  0.59655130  0.71976621  0.95248718     0.74800
O3099       O  0.49798891  0.66865384  0.98271358    -0.38600
O3100       O  0.52455614  0.64811386  0.00249950    -0.38600
O3101       O  0.59277421  0.73868800  0.94065653    -0.39300
O3102       O  0.61691534  0.71679918  0.96209169    -0.39300
C3103       C  0.65621851  0.50431248  0.04855572    -0.11600
C3104       C  0.68128797  0.50711926  0.05043670     0.05400
C3105       C  0.69446481  0.48949101  0.06324406    -0.06900
C3106       C  0.68236657  0.47016354  0.07400673    -0.07700
C3107       C  0.65732133  0.46765401  0.07223754    -0.02200
C3108       C  0.64422776  0.48493596  0.05917450     0.04600
N3109       N  0.61878493  0.48304131  0.05606097     0.67100
H3110       H  0.64560145  0.51747354  0.03896144     0.16000
H3111       H  0.69266129  0.45690396  0.08383606     0.15700
N3112       N  0.72012506  0.48999562  0.06464943     0.74800
O3113       O  0.60534646  0.49576708  0.06928545    -0.38600
O3114       O  0.61075830  0.47561893  0.03605739    -0.38600
O3115       O  0.72991604  0.49586078  0.08436801    -0.39300
O3116       O  0.73187491  0.47725274  0.04989547    -0.39300
C3117       C  0.75786197  0.55714318  0.06600109    -0.11600
C3118       C  0.74366750  0.57136931  0.05075224     0.05400
C3119       C  0.75074938  0.59579190  0.04729338    -0.06900
C3120       C  0.77070609  0.60528831  0.05975447    -0.07700
C3121       C  0.78404509  0.59117650  0.07565293    -0.02200
C3122       C  0.77773850  0.56671930  0.07837402     0.04600
N3123       N  0.79068565  0.55143105  0.09429319     0.67100
H3124       H  0.75335750  0.53835521  0.06877106     0.16000
H3125       H  0.77547218  0.62411275  0.05748129     0.15700
N3126       N  0.73764965  0.61171468  0.03209273     0.74800
O3127       O  0.78229592  0.54789534  0.11499961    -0.38600
O3128       O  0.80509554  0.53619898  0.08547077    -0.38600
O3129       O  0.72374318  0.62694103  0.04171954    -0.39300
O3130       O  0.74590880  0.61601772  0.01147798    -0.39300
C3131       C  0.68804950  0.59393237  0.98160763    -0.11600
C3132       C  0.67801023  0.57228357  0.99001926     0.05400
C3133       C  0.65706176  0.56320036  0.97817288    -0.06900
C3134       C  0.64744358  0.57544929  0.95839080    -0.07700
C3135       C  0.65751736  0.59711143  0.95044325    -0.02200
C3136       C  0.67790312  0.60647808  0.96244239     0.04600
N3137       N  0.68814106  0.62918698  0.95615204     0.67100
H3138       H  0.70373924  0.60175082  0.99026545     0.16000
H3139       H  0.63133982  0.56846189  0.94969843     0.15700
N3140       N  0.64449076  0.54231091  0.98627745     0.74800
O3141       O  0.68189480  0.64770748  0.96793716    -0.38600
O3142       O  0.70808983  0.62938165  0.94539691    -0.38600
O3143       O  0.62557775  0.54528041  0.99844072    -0.39300
O3144       O  0.64724881  0.52266811  0.97494859    -0.39300
C3145       C  0.52737395  0.57477584  0.26084764    -0.11600
C3146       C  0.54244286  0.55841721  0.24855441     0.05400
C3147       C  0.56646738  0.55578233  0.25683834    -0.06900
C3148       C  0.57470677  0.56961272  0.27640304    -0.07700
C3149       C  0.55985084  0.58648856  0.28778747    -0.02200
C3150       C  0.53588968  0.58898752  0.27997934     0.04600
N3151       N  0.52034226  0.60682495  0.29014326     0.67100
H3152       H  0.50889462  0.57726189  0.25514312     0.16000
H3153       H  0.59321576  0.56771886  0.28231064     0.15700
N3154       N  0.58340724  0.54050141  0.24496840     0.74800
O3155       O  0.51808080  0.62666510  0.27945686    -0.38600
O3156       O  0.50395853  0.60019707  0.30427782    -0.38600
O3157       O  0.59809370  0.54999337  0.23060900    -0.39300
O3158       O  0.58902736  0.52084835  0.25472914    -0.39300
C3159       C  0.66507096  0.65876501  0.27553413    -0.11600
C3160       C  0.65023846  0.67312141  0.28995332     0.05400
C3161       C  0.64983091  0.69823515  0.28643160    -0.06900
C3162       C  0.66358281  0.70837860  0.26820595    -0.07700
C3163       C  0.67812284  0.69407759  0.25321744    -0.02200
C3164       C  0.67903831  0.66887947  0.25733579     0.04600
N3165       N  0.69379794  0.65300460  0.24352219     0.67100
H3166       H  0.66572350  0.63944995  0.27838641     0.16000
H3167       H  0.66279122  0.72774931  0.26585489     0.15700
N3168       N  0.63529267  0.71379192  0.30086627     0.74800
O3169       O  0.71159603  0.64362871  0.25392882    -0.38600
O3170       O  0.68440130  0.64182789  0.22596128    -0.38600
O3171       O  0.64536118  0.72644713  0.31701521    -0.39300
O3172       O  0.61525841  0.72051539  0.29262021    -0.39300
C3173       C  0.74997336  0.70453738  0.17063359    -0.11600
C3174       C  0.74527031  0.69815975  0.19456057     0.05400
C3175       C  0.76073348  0.68116107  0.20557364    -0.06900
C3176       C  0.77956205  0.67067380  0.19246863    -0.07700
C3177       C  0.78377916  0.67678615  0.16856386    -0.02200
C3178       C  0.76884636  0.69404705  0.15764723     0.04600
N3179       N  0.77240501  0.70113124  0.13334191     0.67100
H3180       H  0.73855316  0.71739550  0.16155148     0.16000
H3181       H  0.79097965  0.65744420  0.20103849     0.15700
N3182       N  0.75817537  0.67430487  0.23003925     0.74800
O3183       O  0.75908167  0.69203284  0.11720045    -0.38600
O3184       O  0.78275762  0.72098588  0.12940065    -0.38600
O3185       O  0.75307486  0.65257273  0.23420825    -0.39300
O3186       O  0.76967292  0.68615632  0.24582645    -0.39300
C3187       C  0.69431995  0.77132369  0.17575139    -0.11600
C3188       C  0.68334119  0.76203924  0.19647796     0.05400
C3189       C  0.66259943  0.77419626  0.20544397    -0.06900
C3190       C  0.65349149  0.79440509  0.19342211    -0.07700
C3191       C  0.66401301  0.80267101  0.17223274    -0.02200
C3192       C  0.68477159  0.79108206  0.16354091     0.04600
N3193       N  0.69598270  0.79848266  0.14179152     0.67100
H3194       H  0.71012759  0.76273268  0.16825846     0.16000
H3195       H  0.63738733  0.80313139  0.20014616     0.15700
N3196       N  0.64986741  0.76619117  0.22614759     0.74800
O3197       O  0.69112943  0.78709331  0.12261251    -0.38600
O3198       O  0.71526178  0.81052082  0.14307074    -0.38600
O3199       O  0.65188910  0.77828868  0.24540236    -0.39300
O3200       O  0.63128244  0.75336876  0.22303541    -0.39300
C3201       C  0.06312912  0.36136114  0.81312837    -0.11600
C3202       C  0.08030558  0.34784074  0.82561779     0.05400
C3203       C  0.07722716  0.32268255  0.82746552    -0.06900
C3204       C  0.05710182  0.31162129  0.81707322    -0.07700
C3205       C  0.03984088  0.32507451  0.80462089    -0.02200
C3206       C  0.04292575  0.35029774  0.80276767     0.04600
N3207       N  0.02522007  0.36516800  0.79166703     0.67100
H3208       H  0.06501376  0.38081214  0.81221038     0.16000
H3209       H  0.05546361  0.29215203  0.81807024     0.15700
N3210       N  0.09411857  0.30802303  0.83998217     0.74800
O3211       O  0.00981697  0.37544878  0.80484248    -0.38600
O3212       O  0.02951756  0.37374620  0.77121132    -0.38600
O3213       O  0.08884035  0.30086013  0.86075215    -0.39300
O3214       O  0.10948847  0.29636947  0.82794859    -0.39300
C3215       C  0.64941474  0.42700342  0.79210675    -0.11600
C3216       C  0.65331350  0.42718603  0.81694315     0.05400
C3217       C  0.67421302  0.43860423  0.82630151    -0.06900
C3218       C  0.68994843  0.45065501  0.81086018    -0.07700
C3219       C  0.68525398  0.45159424  0.78617141    -0.02200
C3220       C  0.66506444  0.43905505  0.77671931     0.04600
N3221       N  0.66026925  0.43809693  0.75148712     0.67100
H3222       H  0.63394298  0.41757557  0.78462602     0.16000
H3223       H  0.70516707  0.46043927  0.81840841     0.15700
N3224       N  0.67936483  0.43893327  0.85145956     0.74800
O3225       O  0.66747148  0.42003705  0.73955097    -0.38600
O3226       O  0.64336973  0.45067444  0.74313126    -0.38600
O3227       O  0.69580665  0.42543470  0.85928866    -0.39300
O3228       O  0.67330015  0.45715551  0.86378582    -0.39300
C3229       C  0.28846814  0.53706359  0.93412656    -0.11600
C3230       C  0.30337472  0.52248863  0.94833970     0.05400
C3231       C  0.32786608  0.52945964  0.95126511    -0.06900
C3232       C  0.33680152  0.54957134  0.93899265    -0.07700
C3233       C  0.32206322  0.56299270  0.92369629    -0.02200
C3234       C  0.29752619  0.55691360  0.92174524     0.04600
N3235       N  0.28175078  0.56966667  0.90612067     0.67100
H3236       H  0.26959028  0.53264944  0.93189283     0.16000
H3237       H  0.35574762  0.55408870  0.94052671     0.15700
N3238       N  0.34448518  0.51575117  0.96516729     0.74800
O3239       O  0.27776525  0.56109422  0.88538141    -0.38600
O3240       O  0.26668358  0.58405997  0.91522942    -0.38600
O3241       O  0.35913589  0.50219969  0.95424683    -0.39300
O3242       O  0.34991684  0.52328905  0.98597771    -0.39300
C3243       C  0.22558261  0.44272237  0.95739614    -0.11600
C3244       C  0.23966736  0.45989827  0.94509829     0.05400
C3245       C  0.23233073  0.46636679  0.92148357    -0.06900
C3246       C  0.21238686  0.45520085  0.91072068    -0.07700
C3247       C  0.19918626  0.43770511  0.92271550    -0.02200
C3248       C  0.20544390  0.43174567  0.94637068     0.04600
N3249       N  0.19185282  0.41395678  0.95889442     0.67100
H3250       H  0.23034194  0.43754330  0.97550632     0.16000
H3251       H  0.20763323  0.45965129  0.89238429     0.15700
N3252       N  0.24535889  0.48326745  0.90733654     0.74800
O3253       O  0.19597703  0.39191132  0.95480852    -0.38600
O3254       O  0.17211818  0.41993306  0.96836355    -0.38600
O3255       O  0.25900755  0.47522125  0.89105799    -0.39300
O3256       O  0.23699328  0.50429581  0.90529075    -0.39300
C3257       C  0.31857130  0.47119488  0.02305984    -0.11600
C3258       C  0.30352157  0.45693642  0.00824181     0.05400
C3259       C  0.30045395  0.43225771  0.01407578    -0.06900
C3260       C  0.31306894  0.42245356  0.03351676    -0.07700
C3261       C  0.32858773  0.43663186  0.04766078    -0.02200
C3262       C  0.33093764  0.46138960  0.04259753     0.04600
N3263       N  0.34620502  0.47682640  0.05664244     0.67100
H3264       H  0.32099797  0.49021594  0.01941889     0.16000
H3265       H  0.31111402  0.40340308  0.03732465     0.15700
N3266       N  0.28551557  0.41645112  0.00009763     0.74800
O3267       O  0.33678412  0.49016510  0.07252279    -0.38600
O3268       O  0.36647993  0.48262139  0.04831410    -0.38600
O3269       O  0.29538434  0.40193043  0.98557766    -0.39300
O3270       O  0.26471750  0.41161522  0.00773276    -0.39300
C3271       C  0.49080668  0.45210830  0.83134384    -0.11600
C3272       C  0.49003802  0.45153132  0.80609332     0.05400
C3273       C  0.50878710  0.43936992  0.79377939    -0.06900
C3274       C  0.52740090  0.42835460  0.80663589    -0.07700
C3275       C  0.52826746  0.42908892  0.83175904    -0.02200
C3276       C  0.50942781  0.44094193  0.84421463     0.04600
N3277       N  0.50876889  0.44206001  0.86985499     0.67100
H3278       H  0.47659548  0.46101386  0.84132217     0.16000
H3279       H  0.54148707  0.41910359  0.79677951     0.15700
N3280       N  0.50989317  0.43827683  0.76821456     0.74800
O3281       O  0.51600708  0.46108882  0.88027001    -0.38600
O3282       O  0.49415625  0.42856334  0.88070442    -0.38600
O3283       O  0.52328511  0.45318036  0.75764872    -0.39300
O3284       O  0.50579632  0.41821576  0.75810606    -0.39300
C3285       C  0.43258922  0.52006931  0.82939585    -0.11600
C3286       C  0.42627980  0.51412611  0.80553941     0.05400
C3287       C  0.40820261  0.52828256  0.79421721    -0.06900
C3288       C  0.39768398  0.54773672  0.80658054    -0.07700
C3289       C  0.40420597  0.55348494  0.83023327    -0.02200
C3290       C  0.42163645  0.53923618  0.84179573     0.04600
N3291       N  0.42842177  0.54376731  0.86619579     0.67100
H3292       H  0.44595377  0.50954776  0.83882533     0.16000
H3293       H  0.38403992  0.55838006  0.79765411     0.15700
N3294       N  0.40001827  0.52352511  0.77027173     0.74800
O3295       O  0.41924056  0.53094334  0.88238693    -0.38600
O3296       O  0.44807086  0.55447934  0.87045180    -0.38600
O3297       O  0.37995126  0.51313299  0.76740679    -0.39300
O3298       O  0.40790216  0.53657858  0.75359391    -0.39300
C3299       C  0.41482765  0.46895052  0.72619801    -0.11600
C3300       C  0.42980454  0.45383557  0.73977679     0.05400
C3301       C  0.43258230  0.42953395  0.73210849    -0.06900
C3302       C  0.41976338  0.42089713  0.71213689    -0.07700
C3303       C  0.40379199  0.43567963  0.69969407    -0.02200
C3304       C  0.40172434  0.46012335  0.70650264     0.04600
N3305       N  0.38555307  0.47601971  0.69459614     0.67100
H3306       H  0.41259813  0.48773885  0.73127050     0.16000
H3307       H  0.42147077  0.40206454  0.70691925     0.15700
N3308       N  0.44727990  0.41280131  0.74468427     0.74800
O3309       O  0.36518990  0.47976901  0.70385228    -0.38600
O3310       O  0.39415648  0.49160657  0.68064460    -0.38600
O3311       O  0.43730468  0.39882716  0.75940321    -0.39300
O3312       O  0.46648953  0.40601181  0.73474744    -0.39300
C3313       C  0.50541338  0.34153639  0.94654656    -0.11600
C3314       C  0.50396696  0.31620936  0.94563040     0.05400
C3315       C  0.52141335  0.30346561  0.93198891    -0.06900
C3316       C  0.53867854  0.31618005  0.91885853    -0.07700
C3317       C  0.53951065  0.34138913  0.91939284    -0.02200
C3318       C  0.52289082  0.35410996  0.93375526     0.04600
N3319       N  0.52347336  0.37982032  0.93573892     0.67100
H3320       H  0.49248275  0.35193286  0.95683576     0.16000
H3321       H  0.55160699  0.30624745  0.90810084     0.15700
N3322       N  0.52284617  0.27777651  0.93178341     0.74800
O3323       O  0.53413400  0.38932775  0.95353604    -0.38600
O3324       O  0.50766766  0.39186434  0.92485282    -0.38600
O3325       O  0.52047286  0.26693404  0.91187595    -0.39300
O3326       O  0.53524720  0.26785997  0.94792022    -0.39300
C3327       C  0.45395553  0.33659768  0.02065712    -0.11600
C3328       C  0.43915428  0.32277682  0.00521666     0.05400
C3329       C  0.41394051  0.32323251  0.00916738    -0.06900
C3330       C  0.40444577  0.33691574  0.02824712    -0.07700
C3331       C  0.41930365  0.35065204  0.04353508    -0.02200
C3332       C  0.44437971  0.35046360  0.03954148     0.04600
N3333       N  0.46044708  0.36466898  0.05397981     0.67100
H3334       H  0.47327727  0.33672127  0.01809519     0.16000
H3335       H  0.38513783  0.33706984  0.03098038     0.15700
N3336       N  0.39738487  0.31130442  0.99332665     0.74800
O3337       O  0.47246256  0.35441977  0.07019905    -0.38600
O3338       O  0.46807488  0.38437731  0.04574110    -0.38600
O3339       O  0.38679424  0.29257972  0.00056336    -0.39300
O3340       O  0.38765557  0.32345838  0.97690877    -0.39300
C3341       C  0.41471850  0.25100883  0.95253198    -0.11600
C3342       C  0.43919814  0.25433398  0.94714155     0.05400
C3343       C  0.45016728  0.23774806  0.93097973    -0.06900
C3344       C  0.43674688  0.21877395  0.92092739    -0.07700
C3345       C  0.41231950  0.21603567  0.92597443    -0.02200
C3346       C  0.40121188  0.23245746  0.94189138     0.04600
N3347       N  0.37612689  0.23111323  0.94708976     0.67100
H3348       H  0.40550699  0.26340361  0.96449499     0.16000
H3349       H  0.44529946  0.20655635  0.90824032     0.15700
N3350       N  0.47434466  0.24039259  0.92308969     0.74800
O3351       O  0.36969167  0.22159907  0.96653754    -0.38600
O3352       O  0.36217773  0.24594426  0.93715098    -0.38600
O3353       O  0.49014417  0.22666281  0.93179524    -0.39300
O3354       O  0.47759657  0.24883892  0.90238671    -0.39300
C3355       C  0.29892687  0.25203543  0.83586379    -0.11600
C3356       C  0.30345247  0.25520033  0.81127517     0.05400
C3357       C  0.31821780  0.23809836  0.79929236    -0.06900
C3358       C  0.32848617  0.21909140  0.81216977    -0.07700
C3359       C  0.32420760  0.21644843  0.83676900    -0.02200
C3360       C  0.30900812  0.23300639  0.84857641     0.04600
N3361       N  0.30349988  0.23091147  0.87349659     0.67100
H3362       H  0.28776375  0.26470597  0.84567023     0.16000
H3363       H  0.34012484  0.20638931  0.80292433     0.15700
N3364       N  0.32278084  0.23917372  0.77412329     0.74800
O3365       O  0.31432483  0.24451697  0.88833799    -0.38600
O3366       O  0.28336098  0.22217512  0.87925094    -0.38600
O3367       O  0.34362026  0.24501327  0.76740638    -0.39300
O3368       O  0.30988453  0.22652547  0.76012772    -0.39300
C3369       C  0.28678822  0.33199138  0.73399098    -0.11600
C3370       C  0.30291366  0.31856933  0.74805119     0.05400
C3371       C  0.32737948  0.31781860  0.74102941    -0.06900
C3372       C  0.33514242  0.33112028  0.72119371    -0.07700
C3373       C  0.31906111  0.34496139  0.70776118    -0.02200
C3374       C  0.29451315  0.34489745  0.71398013     0.04600
N3375       N  0.27711912  0.35798371  0.70044616     0.67100
H3376       H  0.26785076  0.33257770  0.73855125     0.16000
H3377       H  0.35400234  0.33074983  0.71628521     0.15700
N3378       N  0.34487525  0.30415775  0.75375300     0.74800
O3379       O  0.26435935  0.34663518  0.68527148    -0.38600
O3380       O  0.26949059  0.37777363  0.70881596    -0.38600
O3381       O  0.35318490  0.28552567  0.74359699    -0.39300
O3382       O  0.35762690  0.31482795  0.76940317    -0.39300
C3383       C  0.21243273  0.32685406  0.84364207    -0.11600
C3384       C  0.20570837  0.34890495  0.83365755     0.05400
C3385       C  0.21787837  0.35721402  0.81326046    -0.06900
C3386       C  0.23643306  0.34350898  0.80324135    -0.07700
C3387       C  0.24364396  0.32135600  0.81312837    -0.02200
C3388       C  0.23122270  0.31307530  0.83380724     0.04600
N3389       N  0.23720283  0.29100820  0.84538605     0.67100
H3390       H  0.20310559  0.32037176  0.85939806     0.16000
H3391       H  0.24533044  0.35061759  0.78753945     0.15700
N3392       N  0.21174013  0.37959482  0.80239887     0.74800
O3393       O  0.25013354  0.29199540  0.86406277    -0.38600
O3394       O  0.22341524  0.27307913  0.84237542    -0.38600
O3395       O  0.22487940  0.39778637  0.80655930    -0.39300
O3396       O  0.19868413  0.37927642  0.78380037    -0.39300
C3397       C  0.79583913  0.21455593  0.06740118    -0.11600
C3398       C  0.78055726  0.20452750  0.04965040     0.05400
C3399       C  0.78082882  0.17924343  0.04573927    -0.06900
C3400       C  0.79671688  0.16481176  0.05887958    -0.07700
C3401       C  0.81273335  0.17518053  0.07544628    -0.02200
C3402       C  0.81186635  0.20006783  0.08022966     0.04600
N3403       N  0.82841567  0.21085917  0.09693032     0.67100
H3404       H  0.79631162  0.23393429  0.07029412     0.16000
H3405       H  0.79755652  0.14559795  0.05511840     0.15700
N3406       N  0.76728989  0.16813056  0.02677970     0.74800
O3407       O  0.84896529  0.21712779  0.08966096    -0.38600
O3408       O  0.82508817  0.20814829  0.11915825    -0.38600
O3409       O  0.77789949  0.16322995  0.00732031    -0.39300
O3410       O  0.74865500  0.15630959  0.03210541    -0.39300
C3411       C  0.70476608  0.19166735  0.92785931    -0.11600
C3412       C  0.69335358  0.20493796  0.94617451     0.05400
C3413       C  0.66804766  0.20448192  0.94761760    -0.06900
C3414       C  0.65475954  0.19206556  0.92998274    -0.07700
C3415       C  0.66628393  0.18002934  0.91095472    -0.02200
C3416       C  0.69157315  0.17941139  0.91024131     0.04600
N3417       N  0.70421689  0.16681505  0.89166092     0.67100
H3418       H  0.72421673  0.19158627  0.92668201     0.16000
H3419       H  0.63527528  0.19216354  0.93086398     0.15700
N3420       N  0.65544007  0.21742091  0.96592715     0.74800
O3421       O  0.71241156  0.17866177  0.87424820    -0.38600
O3422       O  0.71342416  0.14661278  0.89635146    -0.38600
O3423       O  0.64603741  0.23743237  0.96083478    -0.39300
O3424       O  0.64752466  0.20590306  0.98367797    -0.39300
C3425       C  0.70518346  0.32121181  0.06306101    -0.11600
C3426       C  0.69301229  0.30649456  0.04613608     0.05400
C3427       C  0.66801719  0.30941581  0.04279219    -0.06900
C3428       C  0.65585385  0.32717876  0.05584636    -0.07700
C3429       C  0.66823224  0.34229515  0.07188917    -0.02200
C3430       C  0.69288499  0.33902693  0.07600141     0.04600
N3431       N  0.70542348  0.35393514  0.09307203     0.67100
H3432       H  0.72447233  0.31948702  0.06546804     0.16000
H3433       H  0.63670175  0.32961267  0.05304647     0.15700
N3434       N  0.65494400  0.29602831  0.02499049     0.74800
O3435       O  0.70370459  0.34929552  0.11515009    -0.38600
O3436       O  0.71250724  0.37459780  0.08686209    -0.38600
O3437       O  0.64091704  0.27955105  0.03183915    -0.39300
O3438       O  0.65101423  0.30579504  0.00498238    -0.39300
C3439       C  0.68795308  0.30447115  0.91557201    -0.11600
C3440       C  0.70629046  0.31915117  0.92508934     0.05400
C3441       C  0.70442686  0.34432540  0.92308413    -0.06900
C3442       C  0.68407714  0.35442463  0.91192088    -0.07700
C3443       C  0.66522393  0.33965092  0.90298144    -0.02200
C3444       C  0.66751778  0.31433945  0.90483970     0.04600
N3445       N  0.64926935  0.29816914  0.89629895     0.67100
H3446       H  0.68890196  0.28503832  0.91747278     0.16000
H3447       H  0.68281160  0.37386431  0.91045426     0.15700
N3448       N  0.72318696  0.35961344  0.93220979     0.74800
O3449       O  0.65238108  0.28771295  0.87630359    -0.38600
O3450       O  0.63569892  0.28831684  0.91148453    -0.38600
O3451       O  0.74364781  0.35889741  0.92245237    -0.39300
O3452       O  0.72125226  0.36857275  0.95305507    -0.39300
C3453       C  0.82026263  0.31031324  0.05064247    -0.11600
C3454       C  0.80795095  0.32435403  0.03365448     0.05400
C3455       C  0.80635360  0.34958456  0.03779185    -0.06900
C3456       C  0.81673559  0.35983649  0.05856561    -0.07700
C3457       C  0.82878660  0.34552400  0.07539834    -0.02200
C3458       C  0.83055163  0.32055721  0.07122352     0.04600
N3459       N  0.84340025  0.30530779  0.08727948     0.67100
H3460       H  0.82155141  0.29091194  0.04838120     0.16000
H3461       H  0.81604142  0.37923181  0.06124982     0.15700
N3462       N  0.79537416  0.36529882  0.02081950     0.74800
O3463       O  0.83169283  0.29317839  0.10234927    -0.38600
O3464       O  0.86430004  0.29854630  0.08159684    -0.38600
O3465       O  0.77520095  0.37444779  0.02578138    -0.39300
O3466       O  0.80863370  0.37568231  0.00571840    -0.39300
C3467       C  0.78197018  0.06816823  0.17640691    -0.11600
C3468       C  0.78493912  0.07095322  0.20126582     0.05400
C3469       C  0.80309331  0.08665086  0.21019214    -0.06900
C3470       C  0.81831064  0.09846484  0.19424184    -0.07700
C3471       C  0.81654163  0.09415770  0.16951557    -0.02200
C3472       C  0.79787341  0.07925121  0.16048282     0.04600
N3473       N  0.79615175  0.07334663  0.13549461     0.67100
H3474       H  0.76864380  0.05560235  0.16936604     0.16000
H3475       H  0.83237815  0.11020129  0.20126230     0.15700
N3476       N  0.80711005  0.09004365  0.23537650     0.74800
O3477       O  0.80628655  0.05442143  0.12786032    -0.38600
O3478       O  0.77934329  0.08238017  0.12326857    -0.38600
O3479       O  0.82452383  0.07926641  0.24510366    -0.39300
O3480       O  0.79885837  0.10876034  0.24545460    -0.39300
C3481       C  0.68522323  0.08205275  0.29648210    -0.11600
C3482       C  0.68248750  0.05699990  0.29314436     0.05400
C3483       C  0.66563153  0.04436243  0.30728911    -0.06900
C3484       C  0.65247257  0.05651894  0.32478465    -0.07700
C3485       C  0.65595428  0.08108586  0.32870767    -0.02200
C3486       C  0.67196591  0.09414985  0.31430552     0.04600
N3487       N  0.67556793  0.11938632  0.31865026     0.67100
H3488       H  0.69870077  0.09183000  0.28643432     0.16000
H3489       H  0.63982715  0.04663305  0.33576876     0.15700
N3490       N  0.66267410  0.01883364  0.30524167     0.74800
O3491       O  0.68869629  0.12598968  0.33608608    -0.38600
O3492       O  0.66066248  0.13415373  0.31009083    -0.38600
O3493       O  0.67274693  0.00571707  0.32066043    -0.39300
O3494       O  0.64450061  0.01069400  0.29413985    -0.39300
C3495       C  0.67978318  0.94280236  0.16071000    -0.11600
C3496       C  0.66262365  0.92955736  0.17352017     0.05400
C3497       C  0.65752863  0.93626207  0.19746339    -0.06900
C3498       C  0.67043468  0.95509103  0.20845744    -0.07700
C3499       C  0.68838177  0.96766529  0.19606350    -0.02200
C3500       C  0.69279866  0.96164102  0.17178074     0.04600
N3501       N  0.71109214  0.97358051  0.15838854     0.67100
H3502       H  0.68348792  0.93807930  0.14213964     0.16000
H3503       H  0.66726356  0.95911837  0.22729943     0.15700
N3504       N  0.63960502  0.92399979  0.21104658     0.74800
O3505       O  0.73130822  0.96356130  0.15602830    -0.38600
O3506       O  0.70491796  0.98937907  0.14344695    -0.38600
O3507       O  0.64618312  0.90857866  0.22621958    -0.39300
O3508       O  0.61913723  0.93356021  0.21322291    -0.39300
C3509       C  0.80512304  0.09048777  0.33978243    -0.11600
C3510       C  0.82838894  0.09576687  0.33196114     0.05400
C3511       C  0.83976303  0.07988324  0.31569472    -0.06900
C3512       C  0.82762916  0.05937121  0.30721242    -0.07700
C3513       C  0.80405140  0.05404082  0.31456826    -0.02200
C3514       C  0.79287623  0.06990492  0.33139815     0.04600
N3515       N  0.76907612  0.06584651  0.34010292     0.67100
H3516       H  0.79660529  0.10218085  0.35296153     0.16000
H3517       H  0.83669800  0.04782871  0.29429576     0.15700
N3518       N  0.86368054  0.08428459  0.30751037     0.74800
O3519       O  0.76654590  0.05666351  0.36059412    -0.38600
O3520       O  0.75202155  0.07802324  0.33145582    -0.38600
O3521       O  0.88073152  0.07225112  0.31635256    -0.39300
O3522       O  0.86656557  0.09410235  0.28737051    -0.39300
C3523       C  0.05427908  0.94044871  0.41008177    -0.11600
C3524       C  0.07253375  0.92867770  0.42291353     0.05400
C3525       C  0.07104346  0.92754983  0.44809486    -0.06900
C3526       C  0.05231302  0.93924042  0.46000976    -0.07700
C3527       C  0.03463960  0.95209328  0.44741527    -0.02200
C3528       C  0.03531479  0.95208388  0.42206022     0.04600
N3529       N  0.01768209  0.96446727  0.40817212     0.67100
H3530       H  0.05494962  0.94082287  0.39062555     0.16000
H3531       H  0.05202392  0.93892681  0.47949384     0.15700
N3532       N  0.08817869  0.91443493  0.46192210     0.74800
O3533       O  0.02277301  0.98500056  0.39999847    -0.38600
O3534       O  0.00121550  0.95227048  0.39810753    -0.38600
O3535       O  0.10410101  0.92599459  0.47350904    -0.39300
O3536       O  0.08289210  0.89331536  0.46836063    -0.39300
C3537       C  0.44504778  0.84987383  0.49952702    -0.11600
C3538       C  0.43626790  0.82613347  0.49554075     0.05400
C3539       C  0.41860375  0.81722699  0.51153868    -0.06900
C3540       C  0.40954635  0.83193437  0.52978995    -0.07700
C3541       C  0.41783382  0.85538263  0.53307407    -0.02200
C3542       C  0.43599194  0.86438880  0.51825725     0.04600
N3543       N  0.44564374  0.88796090  0.52264710     0.67100
H3544       H  0.45877620  0.85734321  0.48800736     0.16000
H3545       H  0.39573025  0.82495208  0.54157450     0.15700
N3546       N  0.40914302  0.79341653  0.50988719     0.74800
O3547       O  0.46108574  0.89076104  0.53913376    -0.38600
O3548       O  0.43419800  0.90610092  0.51531851    -0.38600
O3549       O  0.41822242  0.77755214  0.52322912    -0.39300
O3550       O  0.38732350  0.79132241  0.50394139    -0.39300
C3551       C  0.32605635  0.96853068  0.50076462    -0.11600
C3552       C  0.30122349  0.96377746  0.49858128     0.05400
C3553       C  0.29037957  0.94891896  0.51612902    -0.06900
C3554       C  0.30431767  0.93908694  0.53458562    -0.07700
C3555       C  0.32900464  0.94357368  0.53625263    -0.02200
C3556       C  0.33990879  0.95857497  0.51914964     0.04600
N3557       N  0.36507799  0.96379005  0.51991568     0.67100
H3558       H  0.33518705  0.97964370  0.48773016     0.16000
H3559       H  0.29581475  0.92733348  0.54751571     0.15700
N3560       N  0.26546962  0.94293859  0.51567163     0.74800
O3561       O  0.37893083  0.95213075  0.50615693    -0.38600
O3562       O  0.37183925  0.98411838  0.52788207    -0.38600
O3563       O  0.25994284  0.92116104  0.51166500    -0.39300
O3564       O  0.25129556  0.95577517  0.52799490    -0.39300
C3565       C  0.32105794  0.03302152  0.44388898    -0.11600
C3566       C  0.30214412  0.02111944  0.43168195     0.05400
C3567       C  0.29680454  0.02848934  0.40782592    -0.06900
C3568       C  0.31054572  0.04676100  0.39704478    -0.07700
C3569       C  0.32948523  0.05819287  0.40938585    -0.02200
C3570       C  0.33453073  0.05129243  0.43313310     0.04600
N3571       N  0.35343990  0.06245658  0.44668809     0.67100
H3572       H  0.32561841  0.02821609  0.46215809     0.16000
H3573       H  0.30637474  0.05210112  0.37882017     0.15700
N3574       N  0.27790758  0.01768763  0.39392392     0.74800
O3575       O  0.37344391  0.05184085  0.44805543    -0.38600
O3576       O  0.34803436  0.07784691  0.46264190    -0.38600
O3577       O  0.25851861  0.02920746  0.39140418    -0.39300
O3578       O  0.28332388  0.00188625  0.37837480    -0.39300
C3579       C  0.23367133  0.96239379  0.41201745    -0.11600
C3580       C  0.23581000  0.96151038  0.43715238     0.05400
C3581       C  0.21804640  0.94879371  0.45016652    -0.06900
C3582       C  0.19946242  0.93679915  0.43789119    -0.07700
C3583       C  0.19771996  0.93749983  0.41285610    -0.02200
C3584       C  0.21490794  0.95070598  0.39986731     0.04600
N3585       N  0.21358139  0.95273837  0.37435742     0.67100
H3586       H  0.24691064  0.97192076  0.40145210     0.16000
H3587       H  0.18626363  0.92671646  0.44803070     0.15700
N3588       N  0.21798409  0.94794729  0.47574227     0.74800
O3589       O  0.20436663  0.97152698  0.36567745    -0.38600
O3590       O  0.22803098  0.94063079  0.36164160    -0.38600
O3591       O  0.20544689  0.96324169  0.48702060    -0.39300
O3592       O  0.22174127  0.92781816  0.48536022    -0.39300
C3593       C  0.67991144  0.90756488  0.30730493    -0.11600
C3594       C  0.66525736  0.91872000  0.32449622     0.05400
C3595       C  0.67280849  0.94058456  0.33521708    -0.06900
C3596       C  0.69414316  0.95152470  0.32771160    -0.07700
C3597       C  0.70822939  0.94120965  0.30937467    -0.02200
C3598       C  0.70131288  0.91839958  0.29980134     0.04600
N3599       N  0.71595656  0.90558638  0.28293949     0.67100
H3600       H  0.67490525  0.89002041  0.30001946     0.16000
H3601       H  0.69908850  0.96877241  0.33565885     0.15700
N3602       N  0.65936718  0.95164588  0.35414829     0.74800
O3603       O  0.73012906  0.88968431  0.29068853    -0.38600
O3604       O  0.70955993  0.90473783  0.26116416    -0.38600
O3605       O  0.66722865  0.95037327  0.37539403    -0.39300
O3606       O  0.64423041  0.96774513  0.34906231    -0.39300
C3607       C  0.52908972  0.84258716  0.42115390    -0.11600
C3608       C  0.53476294  0.82956676  0.40024488     0.05400
C3609       C  0.52192746  0.80823015  0.39487973    -0.06900
C3610       C  0.50309161  0.80103737  0.40981558    -0.07700
C3611       C  0.49632999  0.81468660  0.43025780    -0.02200
C3612       C  0.51013164  0.83555321  0.43608855     0.04600
N3613       N  0.50534069  0.85016206  0.45678512     0.67100
H3614       H  0.53917479  0.85882074  0.42561464     0.16000
H3615       H  0.49343500  0.78470298  0.40488534     0.15700
N3616       N  0.52749516  0.79364385  0.37432068     0.74800
O3617       O  0.51842682  0.84753417  0.47514413    -0.38600
O3618       O  0.49475246  0.87004560  0.45391941    -0.38600
O3619       O  0.53890264  0.77424879  0.37738005    -0.39300
O3620       O  0.51482462  0.79581481  0.35561587    -0.39300
C3621       C  0.50356925  0.92725307  0.29024007    -0.11600
C3622       C  0.50152717  0.95177038  0.29678042     0.05400
C3623       C  0.51865702  0.96128001  0.31338412    -0.06900
C3624       C  0.53698103  0.94645963  0.32253825    -0.07700
C3625       C  0.53877461  0.92210348  0.31581805    -0.02200
C3626       C  0.52167379  0.91252588  0.29952673     0.04600
N3627       N  0.52212164  0.88776231  0.29222743     0.67100
H3628       H  0.49067330  0.91901599  0.27802687     0.16000
H3629       H  0.54972089  0.95396886  0.33540724     0.15700
N3630       N  0.51790378  0.98566026  0.32169433     0.74800
O3631       O  0.50800320  0.87320269  0.30233567    -0.38600
O3632       O  0.52987387  0.88256387  0.27153176    -0.38600
O3633       O  0.51269571  0.98934492  0.34346264    -0.39300
O3634       O  0.53068839  0.00106459  0.31109090    -0.39300
C3635       C  0.41523991  0.96483621  0.22784833    -0.11600
C3636       C  0.43838262  0.95645241  0.23386727     0.05400
C3637       C  0.44807966  0.93744044  0.21946642    -0.06900
C3638       C  0.43448459  0.92716683  0.20055008    -0.07700
C3639       C  0.41134279  0.93538778  0.19499634    -0.02200
C3640       C  0.40183378  0.95465303  0.20877496     0.04600
N3641       N  0.37850025  0.96414119  0.20383577     0.67100
H3642       H  0.40713746  0.97930102  0.23823955     0.16000
H3643       H  0.44210107  0.91246480  0.19008289     0.15700
N3644       N  0.47188422  0.92852960  0.22304553     0.74800
O3645       O  0.36101394  0.95744703  0.21656250    -0.38600
O3646       O  0.37693825  0.98377950  0.19268069    -0.38600
O3647       O  0.47445172  0.90821170  0.23273498    -0.39300
O3648       O  0.48842014  0.93625788  0.20965609    -0.39300
C3649       C  0.41924138  0.02772109  0.28884988    -0.11600
C3650       C  0.44201146  0.02028637  0.29722825     0.05400
C3651       C  0.45263042  0.03416381  0.31615263    -0.06900
C3652       C  0.44009793  0.05357655  0.32670516    -0.07700
C3653       C  0.41713232  0.06008474  0.31881948    -0.02200
C3654       C  0.40696198  0.04730357  0.29925578     0.04600
N3655       N  0.38418812  0.05396319  0.28951091     0.67100
H3656       H  0.41046593  0.01808173  0.27421028     0.16000
H3657       H  0.44825634  0.06342679  0.34159200     0.15700
N3658       N  0.47592689  0.02903472  0.32542204     0.74800
O3659       O  0.36579763  0.04197216  0.29526255    -0.38600
O3660       O  0.38373887  0.06603822  0.27042200    -0.38600
O3661       O  0.49346409  0.04130958  0.31788993    -0.39300
O3662       O  0.47717529  0.02026259  0.34619892    -0.39300
C3663       C  0.39882981  0.72594033  0.43317273    -0.11600
C3664       C  0.40423797  0.72106428  0.40914025     0.05400
C3665       C  0.42150875  0.73533544  0.39754476    -0.06900
C3666       C  0.43296898  0.75412106  0.41009267    -0.07700
C3667       C  0.42773905  0.75934960  0.43438507    -0.02200
C3668       C  0.41027089  0.74477789  0.44586530     0.04600
N3669       N  0.40335513  0.74857529  0.47017578     0.67100
H3670       H  0.38535457  0.71512373  0.44214183     0.16000
H3671       H  0.44603600  0.76479423  0.40042946     0.15700
N3672       N  0.42795957  0.73086295  0.37309693     0.74800
O3673       O  0.38230116  0.75615692  0.47384043    -0.38600
O3674       O  0.41313012  0.73574190  0.48603739    -0.38600
O3675       O  0.41974940  0.74453361  0.35706425    -0.39300
O3676       O  0.44668677  0.71877946  0.36875496    -0.39300
C3677       C  0.22093002  0.81100972  0.31406145    -0.11600
C3678       C  0.23556566  0.82640246  0.30045347     0.05400
C3679       C  0.23017697  0.85137322  0.30055211    -0.06900
C3680       C  0.21122056  0.86018395  0.31454885    -0.07700
C3681       C  0.19729860  0.84481635  0.32861570    -0.02200
C3682       C  0.20203955  0.81986418  0.32803616     0.04600
N3683       N  0.18832020  0.80317017  0.34177591     0.67100
H3684       H  0.22409157  0.79174766  0.31395601     0.16000
H3685       H  0.20745822  0.87938053  0.31463300     0.15700
N3686       N  0.24340343  0.86837009  0.28682464     0.74800
O3687       O  0.17226776  0.79085368  0.33118724    -0.38600
O3688       O  0.19739026  0.79514772  0.36089936    -0.38600
O3689       O  0.23246729  0.87854416  0.26983868    -0.39300
O3690       O  0.26061737  0.87946635  0.29690236    -0.39300
C3691       C  0.31972803  0.75712798  0.29324771    -0.11600
C3692       C  0.29487713  0.76095221  0.29573720     0.05400
C3693       C  0.28148252  0.74418488  0.30951141    -0.06900
C3694       C  0.29313257  0.72495203  0.32087692    -0.07700
C3695       C  0.31799416  0.72168751  0.31891312    -0.02200
C3696       C  0.33131751  0.73789244  0.30468841     0.04600
N3697       N  0.35665200  0.73513350  0.30154682     0.67100
H3698       H  0.33047319  0.76955576  0.28285136     0.16000
H3699       H  0.28265874  0.71256290  0.33160010     0.15700
N3700       N  0.25594254  0.74567814  0.31167324     0.74800
O3701       O  0.37077177  0.74792693  0.31415579    -0.38600
O3702       O  0.36423290  0.72604712  0.28212158    -0.38600
O3703       O  0.24316133  0.73183265  0.29872757    -0.39300
O3704       O  0.24724726  0.75376187  0.33105736    -0.39300
C3705       C  0.29864595  0.85432377  0.20145539    -0.11600
C3706       C  0.32147532  0.84607320  0.19506932     0.05400
C3707       C  0.33149362  0.82671476  0.20781007    -0.06900
C3708       C  0.31908334  0.81673687  0.22722394    -0.07700
C3709       C  0.29633556  0.82533137  0.23432912    -0.02200
C3710       C  0.28592112  0.84412421  0.22058368     0.04600
N3711       N  0.26256871  0.85344921  0.22542918     0.67100
H3712       H  0.29065079  0.86903989  0.19155944     0.16000
H3713       H  0.32763031  0.80222558  0.23691757     0.15700
N3714       N  0.35418316  0.81673777  0.20121244     0.74800
O3715       O  0.26124181  0.87482615  0.23328207    -0.38600
O3716       O  0.24501008  0.84495275  0.21359678    -0.38600
O3717       O  0.37242617  0.82182611  0.21386180    -0.39300
O3718       O  0.35447140  0.79797029  0.18816859    -0.39300
C3719       C  0.40772774  0.06662797  0.07616190    -0.11600
C3720       C  0.40582181  0.09158954  0.07457494     0.05400
C3721       C  0.42531996  0.10486487  0.06496619    -0.06900
C3722       C  0.44547943  0.09267909  0.05584114    -0.07700
C3723       C  0.44719574  0.06748573  0.05712878    -0.02200
C3724       C  0.42810520  0.05456452  0.06793238     0.04600
N3725       N  0.42791964  0.02892166  0.06909541     0.67100
H3726       H  0.39331417  0.05633501  0.08428119     0.16000
H3727       H  0.45988677  0.10299773  0.04778007     0.15700
N3728       N  0.42529798  0.13063989  0.06476131     0.74800
O3729       O  0.43465835  0.01905279  0.08829409    -0.38600
O3730       O  0.41354755  0.01768974  0.05544040    -0.38600
O3731       O  0.43724785  0.14190313  0.08064972    -0.39300
O3732       O  0.42033450  0.14118925  0.04540134    -0.39300
C3733       C  0.57327868  0.05572053  0.94436102    -0.11600
C3734       C  0.56092390  0.06998208  0.96138642     0.05400
C3735       C  0.55963416  0.09516480  0.95768925    -0.06900
C3736       C  0.56977063  0.10517015  0.93707696    -0.07700
C3737       C  0.58108545  0.09070358  0.91972338    -0.02200
C3738       C  0.58301575  0.06569853  0.92357402     0.04600
N3739       N  0.59430742  0.04999110  0.90652190     0.67100
H3740       H  0.57431564  0.03632051  0.94640294     0.16000
H3741       H  0.56864259  0.12449862  0.93447036     0.15700
N3742       N  0.54830791  0.11103444  0.97452250     0.74800
O3743       O  0.61578472  0.04368381  0.91024283    -0.38600
O3744       O  0.58116865  0.03682282  0.89323234    -0.38600
O3745       O  0.56147664  0.12361662  0.98832733    -0.39300
O3746       O  0.52722786  0.11817916  0.97010988    -0.39300
C3747       C  0.58946826  0.94430411  0.07231645    -0.11600
C3748       C  0.57536595  0.92819543  0.08549685     0.05400
C3749       C  0.55064855  0.93283603  0.08831143    -0.06900
C3750       C  0.54044464  0.95299836  0.07748653    -0.07700
C3751       C  0.55433057  0.96894608  0.06368199    -0.02200
C3752       C  0.57931053  0.96459550  0.06152821     0.04600
N3753       N  0.59491040  0.98092958  0.04940828     0.67100
H3754       H  0.60867808  0.94131667  0.07080927     0.16000
H3755       H  0.52120809  0.95558720  0.07928246     0.15700
N3756       N  0.53558220  0.91748735  0.10222513     0.74800
O3757       O  0.60613934  0.99657342  0.06173873    -0.38600
O3758       O  0.60311694  0.97491402  0.02911348    -0.38600
O3759       O  0.52965904  0.92434022  0.12307321    -0.39300
O3760       O  0.52263822  0.90202644  0.09145440    -0.39300
C3761       C  0.41509088  0.96331453  0.04052883    -0.11600
C3762       C  0.43531280  0.95229825  0.03007475     0.05400
C3763       C  0.44181477  0.92898782  0.03759775    -0.06900
C3764       C  0.42941673  0.91803366  0.05641921    -0.07700
C3765       C  0.41100029  0.93024824  0.06842010    -0.02200
C3766       C  0.40336107  0.95281828  0.06011342     0.04600
N3767       N  0.38437215  0.96543092  0.07212503     0.67100
H3768       H  0.40937522  0.98071967  0.03423596     0.16000
H3769       H  0.43463059  0.90016432  0.06215900     0.15700
N3770       N  0.46155741  0.91647775  0.02700553     0.74800
O3771       O  0.38906525  0.97704587  0.09121806    -0.38600
O3772       O  0.36281215  0.95980606  0.06752310    -0.38600
O3773       O  0.48107540  0.91527908  0.03857417    -0.39300
O3774       O  0.45716992  0.90079578  0.01095682    -0.39300
C3775       C  0.41040567  0.07033086  0.92242945    -0.11600
C3776       C  0.42240758  0.09068278  0.91339983     0.05400
C3777       C  0.44778910  0.09131211  0.91431476    -0.06900
C3778       C  0.46029264  0.07282400  0.92574970    -0.07700
C3779       C  0.44822988  0.05320299  0.93607088    -0.02200
C3780       C  0.42306426  0.05144677  0.93327298     0.04600
N3781       N  0.40989757  0.03117395  0.94187406     0.67100
H3782       H  0.39095816  0.06922300  0.92125208     0.16000
H3783       H  0.47969308  0.07432095  0.92745829     0.15700
N3784       N  0.46129691  0.11043407  0.90379276     0.74800
O3785       O  0.39900085  0.03303210  0.96165287    -0.38600
O3786       O  0.40308607  0.01528029  0.92689747    -0.38600
O3787       O  0.47122228  0.12587009  0.91744756    -0.39300
O3788       O  0.46961927  0.10727589  0.88293324    -0.39300
C3789       C  0.08162823  0.82362958  0.18795355    -0.11600
C3790       C  0.06910678  0.83403249  0.16878616     0.05400
C3791       C  0.04672151  0.82419707  0.16174744    -0.06900
C3792       C  0.03682972  0.80498019  0.17447892    -0.07700
C3793       C  0.04862028  0.79540644  0.19449650    -0.02200
C3794       C  0.07146051  0.80466269  0.20104410     0.04600
N3795       N  0.08419856  0.79570766  0.22139420     0.67100
H3796       H  0.09917043  0.83062001  0.19307249     0.16000
H3797       H  0.01892024  0.79866169  0.16974384     0.15700
N3798       N  0.03340797  0.83393056  0.14215595     0.74800
O3799       O  0.10092848  0.78071756  0.21798871    -0.38600
O3800       O  0.08382087  0.80771029  0.24079078    -0.38600
O3801       O  0.03332841  0.82271513  0.12230070    -0.39300
O3802       O  0.01674440  0.84872465  0.14659497    -0.39300
C3803       C  0.94375262  0.70552223  0.33162490    -0.11600
C3804       C  0.93050380  0.71728195  0.31341540     0.05400
C3805       C  0.90770503  0.70767460  0.30671574    -0.06900
C3806       C  0.89890898  0.68717582  0.31799604    -0.07700
C3807       C  0.91253965  0.67541057  0.33526992    -0.02200
C3808       C  0.93509218  0.68443424  0.34215108     0.04600
N3809       N  0.94957575  0.67166450  0.35905943     0.67100
H3810       H  0.96152748  0.71181722  0.33679181     0.16000
H3811       H  0.88135919  0.68011022  0.31296688     0.15700
N3812       N  0.89353344  0.71748847  0.28777535     0.74800
O3813       O  0.96230792  0.65429908  0.35167107    -0.38600
O3814       O  0.94484148  0.67336125  0.38117181    -0.38600
O3815       O  0.89424758  0.70728745  0.26739608    -0.39300
O3816       O  0.87516664  0.72966319  0.29326303    -0.39300
C3817       C  0.93683618  0.67786473  0.20885943    -0.11600
C3818       C  0.94847617  0.69663183  0.19670361     0.05400
C3819       C  0.94147067  0.70167759  0.17291843    -0.06900
C3820       C  0.92261255  0.68864006  0.16213708    -0.07700
C3821       C  0.91028814  0.67064646  0.17466439    -0.02200
C3822       C  0.91799778  0.66475558  0.19805073     0.04600
N3823       N  0.90678478  0.64586801  0.21124238     0.67100
H3824       H  0.94159244  0.67418487  0.22737355     0.16000
H3825       H  0.91714496  0.69296728  0.14397260     0.15700
N3826       N  0.95219661  0.72094272  0.15991024     0.74800
O3827       O  0.91662791  0.62537851  0.21148555    -0.38600
O3828       O  0.89223547  0.65137761  0.22776040    -0.38600
O3829       O  0.96712989  0.71588572  0.14360087    -0.39300
O3830       O  0.94168154  0.74108707  0.15950856    -0.39300
C3831       C  0.04748060  0.80490126  0.32908589    -0.11600
C3832       C  0.03244935  0.81796690  0.31334743     0.05400
C3833       C  0.03711055  0.84287721  0.31010578    -0.06900
C3834       C  0.05678193  0.85371611  0.32150770    -0.07700
C3835       C  0.07194683  0.84039009  0.33623066    -0.02200
C3836       C  0.06711942  0.81601403  0.34050868     0.04600
N3837       N  0.08194974  0.80267011  0.35665514     0.67100
H3838       H  0.04452470  0.78581664  0.33196962     0.16000
H3839       H  0.06022635  0.87278539  0.31893862     0.15700
N3840       N  0.02206013  0.85775718  0.29570585     0.74800
O3841       O  0.07880425  0.80514713  0.37899328    -0.38600
O3842       O  0.10153905  0.79398828  0.34915948    -0.38600
O3843       O  0.00727774  0.87148306  0.30621602    -0.39300
O3844       O  0.02918731  0.86329018  0.27497442    -0.39300
C3845       C  0.03168515  0.68040206  0.30721640    -0.11600
C3846       C  0.04341891  0.69697153  0.29210894     0.05400
C3847       C  0.06838087  0.70081080  0.29498413    -0.06900
C3848       C  0.08095747  0.68871615  0.31293563    -0.07700
C3849       C  0.06905958  0.67307546  0.32838727    -0.02200
C3850       C  0.04445569  0.66830048  0.32520098     0.04600
N3851       N  0.03244047  0.65157674  0.34050687     0.67100
H3852       H  0.01240792  0.67769894  0.30569668     0.16000
H3853       H  0.10004747  0.69209472  0.31531956     0.15700
N3854       N  0.08095075  0.71848181  0.28141510     0.74800
O3855       O  0.02533405  0.65868507  0.36089342    -0.38600
O3856       O  0.03505679  0.62924006  0.33670860    -0.38600
O3857       O  0.08546517  0.73864211  0.29122709    -0.39300
O3858       O  0.09395809  0.71142480  0.26420185    -0.39300
C3859       C  0.80941555  0.69206140  0.45539045    -0.11600
C3860       C  0.79399930  0.70650414  0.44167102     0.05400
C3861       C  0.79403268  0.70388759  0.41642616    -0.06900
C3862       C  0.80886434  0.68650150  0.40558452    -0.07700
C3863       C  0.82337980  0.67135759  0.41949858    -0.02200
C3864       C  0.82400087  0.67459231  0.44461321     0.04600
N3865       N  0.83882334  0.65995940  0.45953718     0.67100
H3866       H  0.80936892  0.69367229  0.47483325     0.16000
H3867       H  0.80842412  0.68419028  0.38621805     0.15700
N3868       N  0.77788564  0.71716938  0.40164008     0.74800
O3869       O  0.85845583  0.66854488  0.46729453    -0.38600
O3870       O  0.82934287  0.64249870  0.47041134    -0.38600
O3871       O  0.78610116  0.73444047  0.38953568    -0.39300
O3872       O  0.75844035  0.70727286  0.39503822    -0.39300
C3873       C  0.69411872  0.79780540  0.40993850    -0.11600
C3874       C  0.69073913  0.80152608  0.43463147     0.05400
C3875       C  0.67124945  0.81591919  0.44248817    -0.06900
C3876       C  0.65556881  0.82595715  0.42580712    -0.07700
C3877       C  0.65827991  0.82157260  0.40119245    -0.02200
C3878       C  0.67801078  0.80757574  0.39316325     0.04600
N3879       N  0.68165931  0.80249952  0.36824688     0.67100
H3880       H  0.70862561  0.78633940  0.40368008     0.16000
H3881       H  0.64089938  0.83716629  0.43217312     0.15700
N3882       N  0.66685037  0.82043227  0.46741337     0.74800
O3883       O  0.69762337  0.81416256  0.35719862    -0.38600
O3884       O  0.67497976  0.78228215  0.35991468    -0.38600
O3885       O  0.67342624  0.84037880  0.47645474    -0.39300
O3886       O  0.65047709  0.80859657  0.47767319    -0.39300
C3887       C  0.66313865  0.81250221  0.54394964    -0.11600
C3888       C  0.67908119  0.79745992  0.55673014     0.05400
C3889       C  0.68544035  0.80402653  0.58058996    -0.06900
C3890       C  0.67644852  0.82524514  0.59074319    -0.07700
C3891       C  0.66103806  0.84009937  0.57778228    -0.02200
C3892       C  0.65415310  0.83368263  0.55434151     0.04600
N3893       N  0.63749195  0.84827649  0.54136903     0.67100
H3894       H  0.65801386  0.80819158  0.52561578     0.16000
H3895       H  0.68088445  0.82980017  0.60923557     0.15700
N3896       N  0.70034654  0.78922409  0.59522372     0.74800
O3897       O  0.64512621  0.86672982  0.53068152    -0.38600
O3898       O  0.61530532  0.84646322  0.54578863    -0.38600
O3899       O  0.72172730  0.79589818  0.59925336    -0.39300
O3900       O  0.69032045  0.77527053  0.60992629    -0.39300
C3901       C  0.67650096  0.67181036  0.44670765    -0.11600
C3902       C  0.66872071  0.69402262  0.45625710     0.05400
C3903       C  0.64909370  0.70589495  0.44499791    -0.06900
C3904       C  0.63829836  0.69560119  0.42465501    -0.07700
C3905       C  0.64648303  0.67370121  0.41521735    -0.02200
C3906       C  0.66581283  0.66180917  0.42621472     0.04600
N3907       N  0.67546422  0.64004978  0.41627759     0.67100
H3908       H  0.69173924  0.66254208  0.45450915     0.16000
H3909       H  0.62321675  0.70463629  0.41625878     0.15700
N3910       N  0.64030590  0.72876297  0.45315134     0.74800
O3911       O  0.69358604  0.64136721  0.40274509    -0.38600
O3912       O  0.67075579  0.62028647  0.42628922    -0.38600
O3913       O  0.64624232  0.74745471  0.44181492    -0.39300
O3914       O  0.62154430  0.72928675  0.46585064    -0.39300
C3915       C  0.78624271  0.66950452  0.54556869    -0.11600
C3916       C  0.78156158  0.69325768  0.55328432     0.05400
C3917       C  0.79821411  0.70462153  0.56928047    -0.06900
C3918       C  0.81902239  0.69249831  0.57631856    -0.07700
C3919       C  0.82366518  0.66906080  0.56823581    -0.02200
C3920       C  0.80694286  0.65736582  0.55295015     0.04600
N3921       N  0.81068568  0.63321796  0.54459133     0.67100
H3922       H  0.77405687  0.66033372  0.53324275     0.16000
H3923       H  0.83135172  0.70119694  0.58886058     0.15700
N3924       N  0.79468657  0.72848279  0.57856753     0.74800
O3925       O  0.79954309  0.61626369  0.55468302    -0.38600
O3926       O  0.81846934  0.62994179  0.52353874    -0.38600
O3927       O  0.78737881  0.73100547  0.59989192    -0.39300
O3928       O  0.80577599  0.74574204  0.56892270    -0.39300
C3929       C  0.16246956  0.05776252  0.78997700    -0.11600
C3930       C  0.18723786  0.06262652  0.79262030     0.05400
C3931       C  0.19497625  0.07863909  0.81112190    -0.06900
C3932       C  0.17821970  0.08926409  0.82639467    -0.07700
C3933       C  0.15387808  0.08356172  0.82438816    -0.02200
C3934       C  0.14579149  0.06791362  0.80605380     0.04600
N3935       N  0.12100659  0.06099665  0.80491743     0.67100
H3936       H  0.15631389  0.04477646  0.77659287     0.16000
H3937       H  0.18434225  0.10146008  0.84053090     0.15700
N3938       N  0.21984702  0.08360099  0.81552271     0.74800
O3939       O  0.10629301  0.07434779  0.79404700    -0.38600
O3940       O  0.11311953  0.04603298  0.81992957    -0.38600
O3941       O  0.22810031  0.10387749  0.80947793    -0.39300
O3942       O  0.23032377  0.07231578  0.83210996    -0.39300
C3943       C  0.16634381  0.95409857  0.70395548    -0.11600
C3944       C  0.18661953  0.96541235  0.69394721     0.05400
C3945       C  0.19397649  0.95876401  0.67051328    -0.06900
C3946       C  0.18108305  0.94128932  0.65756833    -0.07700
C3947       C  0.16161865  0.92949218  0.66796449    -0.02200
C3948       C  0.15394727  0.93601892  0.69114891     0.04600
N3949       N  0.13464054  0.92319753  0.70224141     0.67100
H3950       H  0.16120006  0.95812154  0.72233828     0.16000
H3951       H  0.18706897  0.93595732  0.63977155     0.15700
N3952       N  0.21583973  0.96759145  0.66045514     0.74800
O3953       O  0.13880491  0.90291093  0.71144308    -0.38600
O3954       O  0.11321046  0.92882923  0.69732758    -0.38600
O3955       O  0.23429086  0.95440056  0.66143298    -0.39300
O3956       O  0.21461376  0.98339245  0.64435409    -0.39300
C3957       C  0.29921892  0.04375035  0.67529727    -0.11600
C3958       C  0.28368621  0.05729333  0.69018780     0.05400
C3959       C  0.28627428  0.08260901  0.69123917    -0.06900
C3960       C  0.30515320  0.09365596  0.67896817    -0.07700
C3961       C  0.32132953  0.07989397  0.66544661    -0.02200
C3962       C  0.31781227  0.05496240  0.66273512     0.04600
N3963       N  0.33316472  0.04107094  0.64734500     0.67100
H3964       H  0.29756218  0.02425685  0.67435018     0.16000
H3965       H  0.30740247  0.11307073  0.68019644     0.15700
N3966       N  0.27088254  0.09734850  0.70560253     0.74800
O3967       O  0.35267257  0.03297167  0.65561246    -0.38600
O3968       O  0.33044823  0.04238477  0.62486843    -0.38600
O3969       O  0.27870115  0.10519844  0.72552505    -0.39300
O3970       O  0.25421556  0.10870996  0.69527177    -0.39300
C3971       C  0.29268080  0.93104409  0.69006817    -0.11600
C3972       C  0.30534051  0.94700573  0.70563853     0.05400
C3973       C  0.32884283  0.95432615  0.69902491    -0.06900
C3974       C  0.33849486  0.94677563  0.67710092    -0.07700
C3975       C  0.32552013  0.93168088  0.66154163    -0.02200
C3976       C  0.30266910  0.92339038  0.66818184     0.04600
N3977       N  0.28984830  0.90682479  0.65293474     0.67100
H3978       H  0.27461472  0.92515670  0.69439571     0.16000
H3979       H  0.35666225  0.95213865  0.67246906     0.15700
N3980       N  0.34359233  0.96897119  0.71438240     0.74800
O3981       O  0.29472165  0.88462614  0.65394063    -0.38600
O3982       O  0.27912855  0.91473295  0.63462524    -0.38600
O3983       O  0.36007776  0.95886613  0.72621122    -0.39300
O3984       O  0.34563025  0.99113256  0.70979557    -0.39300
C3985       C  0.31872678  0.06579360  0.79635029    -0.11600
C3986       C  0.30695470  0.04865913  0.81067030     0.05400
C3987       C  0.30675772  0.05232662  0.83587052    -0.06900
C3988       C  0.31813555  0.07268056  0.84593896    -0.07700
C3989       C  0.32940997  0.08988516  0.83146469    -0.02200
C3990       C  0.32961371  0.08631315  0.80638581     0.04600
N3991       N  0.34060160  0.10329728  0.79070218     0.67100
H3992       H  0.31871530  0.06387080  0.77694562     0.16000
H3993       H  0.31822251  0.07509125  0.86529901     0.15700
N3994       N  0.29552060  0.03560852  0.85165573     0.74800
O3995       O  0.36145973  0.09896705  0.78292255    -0.38600
O3996       O  0.32725166  0.11742133  0.77907080    -0.38600
O3997       O  0.30865535  0.02124110  0.86322755    -0.39300
O3998       O  0.27481155  0.04040181  0.85957978    -0.39300
C3999       C  0.06777781  0.45421070  0.03564314    -0.11600
C4000       C  0.05237197  0.46937017  0.04916374     0.05400
C4001       C  0.04639145  0.46253467  0.07288979    -0.06900
C4002       C  0.05521199  0.44103325  0.08216383    -0.07700
C4003       C  0.06958337  0.42583570  0.06826632    -0.02200
C4004       C  0.07594872  0.43232415  0.04489515     0.04600
N4005       N  0.09037361  0.41653154  0.03046154     0.67100
H4006       H  0.07258647  0.45871706  0.01739137     0.16000
H4007       H  0.05096449  0.43620619  0.10049940     0.15700
N4008       N  0.03142834  0.47697424  0.08803401     0.74800
O4009       O  0.08025245  0.39958540  0.01890006    -0.38600
O4010       O  0.11273410  0.41546760  0.03431962    -0.38600
O4011       O  0.00990449  0.47041132  0.09112458    -0.39300
O4012       O  0.04136596  0.49009221  0.10389415    -0.39300
C4013       C  0.06525340  0.56060865  0.93457366    -0.11600
C4014       C  0.04956791  0.57435483  0.94896221     0.05400
C4015       C  0.04545385  0.59879002  0.94311049    -0.06900
C4016       C  0.05698431  0.60874139  0.92322174    -0.07700
C4017       C  0.07214217  0.59464257  0.90884014    -0.02200
C4018       C  0.07631039  0.57042483  0.91459278     0.04600
N4019       N  0.09193812  0.55557563  0.90050858     0.67100
H4020       H  0.06837261  0.54169357  0.93820859     0.16000
H4021       H  0.05422725  0.62759541  0.91903360     0.15700
N4022       N  0.03012514  0.61391970  0.95720834     0.74800
O4023       O  0.11320808  0.55229257  0.90774606    -0.38600
O4024       O  0.08280955  0.54068350  0.88574822    -0.38600
O4025       O  0.03961393  0.62838302  0.97216230    -0.39300
O4026       O  0.00914047  0.61815449  0.94964323    -0.39300
C4027       C  0.93783056  0.55742223  0.07094578    -0.11600
C4028       C  0.94997640  0.57153749  0.05396078     0.05400
C4029       C  0.94231593  0.59559303  0.05040329    -0.06900
C4030       C  0.92264195  0.60457447  0.06328336    -0.07700
C4031       C  0.91026647  0.59006798  0.07956823    -0.02200
C4032       C  0.91810990  0.56635146  0.08355328     0.04600
N4033       N  0.90631461  0.55097429  0.10025611     0.67100
H4034       H  0.94295882  0.53883052  0.07389923     0.16000
H4035       H  0.91702895  0.62308588  0.06067161     0.15700
N4036       N  0.95433507  0.61137100  0.03422786     0.74800
O4037       O  0.91551155  0.54847371  0.12083727    -0.38600
O4038       O  0.89229019  0.53480392  0.09225949    -0.38600
O4039       O  0.94452267  0.61585582  0.01429107    -0.39300
O4040       O  0.96965400  0.62607365  0.04264832    -0.39300
C4041       C  0.03987711  0.46323865  0.91218676    -0.11600
C4042       C  0.03135580  0.45499509  0.93433810     0.05400
C4043       C  0.04311181  0.43569595  0.94565721    -0.06900
C4044       C  0.06408247  0.42600253  0.93566482    -0.07700
C4045       C  0.07309015  0.43489200  0.91398883    -0.02200
C4046       C  0.06046562  0.45304438  0.90182062     0.04600
N4047       N  0.06902942  0.46175853  0.87934073     0.67100
H4048       H  0.03150006  0.47864747  0.90377168     0.16000
H4049       H  0.07328776  0.41144244  0.94469129     0.15700
N4050       N  0.03471383  0.42707894  0.96825731     0.74800
O4051       O  0.06355246  0.45049857  0.86025224    -0.38600
O4052       O  0.08616938  0.47674022  0.87912909    -0.38600
O4053       O  0.01584165  0.41439261  0.96888813    -0.39300
O4054       O  0.04254196  0.43664466  0.98742013    -0.39300
C4055       C  0.91740111  0.45913583  0.04322082    -0.11600
C4056       C  0.94004922  0.45188491  0.03458964     0.05400
C4057       C  0.95205681  0.43267637  0.04614962    -0.06900
C4058       C  0.94166391  0.42156102  0.06602371    -0.07700
C4059       C  0.91948479  0.42924771  0.07482401    -0.02200
C4060       C  0.90705312  0.44782124  0.06315437     0.04600
N4061       N  0.88425800  0.45568579  0.07205415     0.67100
H4062       H  0.90840913  0.47449070  0.03534933     0.16000
H4063       H  0.95096424  0.40682149  0.07467107     0.15700
N4064       N  0.97522074  0.42462185  0.03852999     0.74800
O4065       O  0.88366402  0.46930645  0.09036813    -0.38600
O4066       O  0.86558814  0.44400044  0.06615557    -0.38600
O4067       O  0.99339748  0.43073374  0.05084730    -0.39300
O4068       O  0.97640064  0.40581227  0.02559997    -0.39300
C4069       C  0.18043772  0.79892963  0.07737210    -0.11600
C4070       C  0.17421220  0.79483997  0.05319467     0.05400
C4071       C  0.15654979  0.80975681  0.04250422    -0.06900
C4072       C  0.14686896  0.82902604  0.05561584    -0.07700
C4073       C  0.15429284  0.83382292  0.07920292    -0.02200
C4074       C  0.17078144  0.81822741  0.09035526     0.04600
N4075       N  0.17852050  0.82204066  0.11459262     0.67100
H4076       H  0.19379118  0.78773548  0.08604814     0.16000
H4077       H  0.13349776  0.84045905  0.04727800     0.15700
N4078       N  0.14900714  0.80661423  0.01809708     0.74800
O4079       O  0.16934684  0.80931702  0.13086304    -0.38600
O4080       O  0.19881275  0.83168856  0.11831442    -0.38600
O4081       O  0.12873120  0.79711211  0.01392045    -0.39300
O4082       O  0.15846006  0.81961163  0.00219819    -0.39300
C4083       C  0.20074456  0.67665507  0.93665751    -0.11600
C4084       C  0.18660821  0.69323412  0.94975960     0.05400
C4085       C  0.16285808  0.69778068  0.94174585    -0.06900
C4086       C  0.15429026  0.68662959  0.92082608    -0.07700
C4087       C  0.16858478  0.67057320  0.90767056    -0.02200
C4088       C  0.19196887  0.66531915  0.91582032     0.04600
N4089       N  0.20698787  0.64843025  0.90346722     0.67100
H4090       H  0.21909104  0.67292779  0.94210008     0.16000
H4091       H  0.13596897  0.69008503  0.91505706     0.15700
N4092       N  0.14687104  0.71329195  0.95463384     0.74800
O4093       O  0.22300123  0.65634813  0.88957100    -0.38600
O4094       O  0.20935875  0.62756392  0.91200272    -0.38600
O4095       O  0.14243655  0.73390619  0.94630778    -0.39300
O4096       O  0.13203440  0.70392823  0.96891963    -0.39300
C4097       C  0.32065871  0.71935758  0.94439586    -0.11600
C4098       C  0.29887910  0.72768879  0.93488675     0.05400
C4099       C  0.29014555  0.71773074  0.91314886    -0.06900
C4100       C  0.30215037  0.69838852  0.90242675    -0.07700
C4101       C  0.32322011  0.68916302  0.91261483    -0.02200
C4102       C  0.33297734  0.70027656  0.93340580     0.04600
N4103       N  0.35452253  0.69164165  0.94437984     0.67100
H4104       H  0.32711455  0.72639013  0.96151138     0.16000
H4105       H  0.29478005  0.69020582  0.88620239     0.15700
N4106       N  0.26814050  0.72575597  0.90265495     0.74800
O4107       O  0.37397023  0.70277217  0.94066098    -0.38600
O4108       O  0.35285742  0.67857031  0.96273196    -0.38600
O4109       O  0.26912860  0.73940698  0.88468180    -0.39300
O4110       O  0.24915741  0.71380736  0.90627773    -0.39300
C4111       C  0.28851718  0.67831053  0.05014436    -0.11600
C4112       C  0.28493669  0.70266875  0.05636472     0.05400
C4113       C  0.30011928  0.71342242  0.07407541    -0.06900
C4114       C  0.31881568  0.70002886  0.08415167    -0.07700
C4115       C  0.32262967  0.67605225  0.07720104    -0.02200
C4116       C  0.30707659  0.66500218  0.06038345     0.04600
N4117       N  0.30997597  0.64035363  0.05326025     0.67100
H4118       H  0.27713662  0.66954275  0.03679606     0.16000
H4119       H  0.33038833  0.70835016  0.09762888     0.15700
N4120       N  0.29750469  0.73797854  0.08167470     0.74800
O4121       O  0.29683235  0.62456229  0.06282915    -0.38600
O4122       O  0.31965829  0.63568089  0.03327457    -0.38600
O4123       O  0.28774522  0.74229959  0.10170212    -0.39300
O4124       O  0.31121922  0.75370966  0.07280560    -0.39300
C4125       C  0.27924098  0.83942418  0.04835280    -0.11600
C4126       C  0.29118897  0.82439139  0.03188824     0.05400
C4127       C  0.31646215  0.82293686  0.03278126    -0.06900
C4128       C  0.32900805  0.83454190  0.05148762    -0.07700
C4129       C  0.31686739  0.84848914  0.06883310    -0.02200
C4130       C  0.29181723  0.85178596  0.06645445     0.04600
N4131       N  0.27880205  0.86758016  0.08210986     0.67100
H4132       H  0.25977574  0.84073067  0.04779245     0.16000
H4133       H  0.34838574  0.83260753  0.05256756     0.15700
N4134       N  0.32964317  0.80926953  0.01540407     0.74800
O4135       O  0.26670823  0.85861242  0.09897246    -0.38600
O4136       O  0.27331412  0.88827839  0.07465511    -0.38600
O4137       O  0.34012105  0.82038134  0.99873542    -0.39300
O4138       O  0.33665795  0.78834778  0.02067779    -0.39300
C4139       C  0.44473483  0.71054275  0.66135766    -0.11600
C4140       C  0.45675854  0.70098220  0.68115370     0.05400
C4141       C  0.45074343  0.67776326  0.68912705    -0.06900
C4142       C  0.43197140  0.66482755  0.67779439    -0.07700
C4143       C  0.41901489  0.67507281  0.65865820    -0.02200
C4144       C  0.42602993  0.69788741  0.65010410     0.04600
N4145       N  0.41372854  0.70904659  0.63064453     0.67100
H4146       H  0.44865574  0.72881562  0.65574730     0.16000
H4147       H  0.42699770  0.64716781  0.68434766     0.15700
N4148       N  0.46225944  0.66829163  0.71000678     0.74800
O4149       O  0.39784981  0.72460602  0.63537094    -0.38600
O4150       O  0.42379478  0.70939765  0.61036617    -0.38600
O4151       O  0.45407267  0.67374567  0.73048111    -0.39300
O4152       O  0.48368879  0.66100728  0.70834307    -0.39300
C4153       C  0.44520707  0.84311240  0.68872256    -0.11600
C4154       C  0.43278421  0.82270176  0.69697508     0.05400
C4155       C  0.41167217  0.81508558  0.68458065    -0.06900
C4156       C  0.40394372  0.82761187  0.66440937    -0.07700
C4157       C  0.41613136  0.84822257  0.65674515    -0.02200
C4158       C  0.43715206  0.85579213  0.66878092     0.04600
N4159       N  0.45088431  0.87595536  0.66076566     0.67100
H4160       H  0.46182283  0.84894825  0.69725245     0.16000
H4161       H  0.38753553  0.82195343  0.65533023     0.15700
N4162       N  0.39741176  0.79513152  0.69229776     0.74800
O4163       O  0.44917559  0.89575424  0.67202669    -0.38600
O4164       O  0.46936691  0.87205044  0.64821433    -0.38600
O4165       O  0.37838934  0.79939891  0.70389772    -0.39300
O4166       O  0.39933846  0.77519861  0.68128912    -0.39300
C4167       C  0.43097460  0.71160473  0.81705610    -0.11600
C4168       C  0.42220348  0.71936302  0.79475029     0.05400
C4169       C  0.40205320  0.70714917  0.78447057    -0.06900
C4170       C  0.39189723  0.68741269  0.79629032    -0.07700
C4171       C  0.40131540  0.67955294  0.81816820    -0.02200
C4172       C  0.42090048  0.69190734  0.82863355     0.04600
N4173       N  0.43090546  0.68467374  0.85107857     0.67100
H4174       H  0.44638359  0.72033980  0.82542173     0.16000
H4175       H  0.37624977  0.67845495  0.78861130     0.15700
N4176       N  0.39146422  0.71435716  0.76225114     0.74800
O4177       O  0.44898169  0.67094625  0.85098644    -0.38600
O4178       O  0.42666199  0.69729366  0.86958377    -0.38600
O4179       O  0.39568902  0.70202933  0.74353929    -0.39300
O4180       O  0.37287814  0.72737938  0.76284905    -0.39300
C4181       C  0.54207036  0.67705537  0.82203404    -0.11600
C4182       C  0.56650265  0.68241685  0.82469777     0.05400
C4183       C  0.57808641  0.69681083  0.80736886    -0.06900
C4184       C  0.56478800  0.70641332  0.78833796    -0.07700
C4185       C  0.54006020  0.70200484  0.78641540    -0.02200
C4186       C  0.52877066  0.68680685  0.80322290     0.04600
N4187       N  0.50361604  0.68158277  0.80182223     0.67100
H4188       H  0.53324161  0.66534641  0.83477568     0.16000
H4189       H  0.57348493  0.71867602  0.77602390     0.15700
N4190       N  0.60304542  0.70271379  0.80936820     0.74800
O4191       O  0.49689207  0.66197372  0.79217022    -0.38600
O4192       O  0.48947329  0.69247607  0.81589181    -0.38600
O4193       O  0.61773944  0.69254314  0.79533112    -0.39300
O4194       O  0.60901388  0.72234133  0.81947920    -0.39300
C4195       C  0.53819300  0.81542760  0.66989064    -0.11600
C4196       C  0.54924708  0.80036265  0.68671037     0.05400
C4197       C  0.57398569  0.80337815  0.69171487    -0.06900
C4198       C  0.58669358  0.82235025  0.68112382    -0.07700
C4199       C  0.57507664  0.83831478  0.66560504    -0.02200
C4200       C  0.55088351  0.83420402  0.65924143     0.04600
N4201       N  0.53890967  0.84895826  0.64207500     0.67100
H4202       H  0.51915441  0.81340000  0.66597773     0.16000
H4203       H  0.60559759  0.82490816  0.68532563     0.15700
N4204       N  0.58620763  0.78829259  0.70837305     0.74800
O4205       O  0.52562481  0.86589530  0.64944292    -0.38600
O4206       O  0.53626237  0.84107722  0.62086600    -0.38600
O4207       O  0.59993826  0.77203884  0.70030531    -0.39300
O4208       O  0.58907843  0.79570637  0.72971143    -0.39300
C4209       C  0.16263828  0.19617033  0.44524455    -0.11600
C4210       C  0.18531370  0.18706378  0.45175021     0.05400
C4211       C  0.19475883  0.16726362  0.43849238    -0.06900
C4212       C  0.18217434  0.15815109  0.41858889    -0.07700
C4213       C  0.16004103  0.16791157  0.41188530    -0.02200
C4214       C  0.15001844  0.18680545  0.42557208     0.04600
N4215       N  0.12719295  0.19695997  0.41962233     0.67100
H4216       H  0.15485098  0.21130885  0.45491145     0.16000
H4217       H  0.18946375  0.14297487  0.40856434     0.15700
N4218       N  0.21682103  0.15585058  0.44494155     0.74800
O4219       O  0.10886794  0.19026680  0.43112648    -0.38600
O4220       O  0.12664614  0.21689419  0.40888595    -0.38600
O4221       O  0.21589286  0.13617427  0.45611536    -0.39300
O4222       O  0.23556351  0.16081928  0.43323537    -0.39300
C4223       C  0.30767694  0.17709584  0.58759510    -0.11600
C4224       C  0.32023141  0.16018355  0.57388020     0.05400
C4225       C  0.31230247  0.15391722  0.55077720    -0.06900
C4226       C  0.29241870  0.16578144  0.54104360    -0.07700
C4227       C  0.28033468  0.18408734  0.55419254    -0.02200
C4228       C  0.28778536  0.18897057  0.57814227     0.04600
N4229       N  0.27548871  0.20567171  0.59340271     0.67100
H4230       H  0.31331586  0.18097530  0.60591313     0.16000
H4231       H  0.28707387  0.16124322  0.52280800     0.15700
N4232       N  0.32430628  0.13538208  0.53736043     0.74800
O4233       O  0.26076984  0.19741938  0.60847133    -0.38600
O4234       O  0.28509971  0.22596252  0.59754907    -0.38600
O4235       O  0.32008201  0.11358533  0.54222130    -0.39300
O4236       O  0.34327175  0.14057189  0.52610952    -0.39300
C4237       C  0.27596733  0.32819375  0.55950905    -0.11600
C4238       C  0.29006171  0.31172238  0.54619041     0.05400
C4239       C  0.31500554  0.31044645  0.55082740    -0.06900
C4240       C  0.32525900  0.32506160  0.56871546    -0.07700
C4241       C  0.31111444  0.34087276  0.58225575    -0.02200
C4242       C  0.28644680  0.34294346  0.57734506     0.04600
N4243       N  0.27214059  0.35999110  0.59040314     0.67100
H4244       H  0.25672085  0.32913970  0.55642213     0.16000
H4245       H  0.34438346  0.32377455  0.57239049     0.15700
N4246       N  0.33008311  0.29348147  0.53873545     0.74800
O4247       O  0.27320344  0.38199223  0.58485669    -0.38600
O4248       O  0.26416812  0.35436332  0.61079591    -0.38600
O4249       O  0.34428477  0.30118447  0.52290872    -0.39300
O4250       O  0.33515815  0.27408593  0.54926410    -0.39300
C4251       C  0.18880073  0.29711652  0.41915879    -0.11600
C4252       C  0.20450476  0.30664667  0.43689397     0.05400
C4253       C  0.20279681  0.33142683  0.44302550    -0.06900
C4254       C  0.18479009  0.34556471  0.43272502    -0.07700
C4255       C  0.16843271  0.33557708  0.41631562    -0.02200
C4256       C  0.17099159  0.31150587  0.40871268     0.04600
N4257       N  0.15538624  0.30164166  0.39059132     0.67100
H4258       H  0.18969276  0.27816046  0.41422231     0.16000
H4259       H  0.18312326  0.36435501  0.43807303     0.15700
N4260       N  0.21772100  0.34225770  0.46107495     0.74800
O4261       O  0.15926058  0.30659224  0.36886053    -0.38600
O4262       O  0.13494673  0.29376547  0.39651695    -0.38600
O4263       O  0.23452464  0.35601357  0.45448737    -0.39300
O4264       O  0.20931810  0.34490721  0.48196798    -0.39300
C4265       C  0.30704918  0.21875630  0.42112868    -0.11600
C4266       C  0.30988726  0.21849284  0.44609681     0.05400
C4267       C  0.32621514  0.20201772  0.45643437    -0.06900
C4268       C  0.33835093  0.18542379  0.44185665    -0.07700
C4269       C  0.33411289  0.18449945  0.41710531    -0.02200
C4270       C  0.31892098  0.20185704  0.40656622     0.04600
N4271       N  0.31406103  0.20159215  0.38136180     0.67100
H4272       H  0.29401273  0.23075611  0.41306235     0.16000
H4273       H  0.35047192  0.17255660  0.45000576     0.15700
N4274       N  0.32973925  0.20097405  0.48183687     0.74800
O4275       O  0.32444896  0.21685844  0.36828900    -0.38600
O4276       O  0.29497437  0.19165536  0.37382583    -0.38600
O4277       O  0.32015288  0.18394523  0.49326687    -0.39300
O4278       O  0.34762006  0.21180048  0.49097652    -0.39300
C4279       C  0.18906844  0.30144243  0.57226695    -0.11600
C4280       C  0.18131294  0.29550289  0.54887824     0.05400
C4281       C  0.16486867  0.31120926  0.53725359    -0.06900
C4282       C  0.15662128  0.33185429  0.54926638    -0.07700
C4283       C  0.16438537  0.33737117  0.57258558    -0.02200
C4284       C  0.18091199  0.32213798  0.58404008     0.04600
N4285       N  0.18963249  0.32736062  0.60769033     0.67100
H4286       H  0.20205462  0.29027650  0.58148869     0.16000
H4287       H  0.14340724  0.34325860  0.54064274     0.15700
N4288       N  0.15615624  0.30673147  0.51341693     0.74800
O4289       O  0.20972758  0.33780636  0.61001016    -0.38600
O4290       O  0.18146131  0.31543058  0.62504793    -0.38600
O4291       O  0.13526031  0.29812056  0.51072456    -0.39300
O4292       O  0.16549290  0.31812130  0.49627693    -0.39300
C4293       C  0.19055246  0.44454246  0.16383508    -0.11600
C4294       C  0.17785270  0.45889195  0.18044352     0.05400
C4295       C  0.15306114  0.45416522  0.18399665    -0.06900
C4296       C  0.14198996  0.43491168  0.17179016    -0.07700
C4297       C  0.15503152  0.42014847  0.15602681    -0.02200
C4298       C  0.17941525  0.42533530  0.15169176     0.04600
N4299       N  0.19314937  0.41146346  0.13492267     0.67100
H4300       H  0.20954944  0.44765265  0.16075007     0.16000
H4301       H  0.12297232  0.43152359  0.17450481     0.15700
N4302       N  0.13863778  0.46879031  0.19953352     0.74800
O4303       O  0.19601540  0.41947817  0.11398853    -0.38600
O4304       O  0.20783122  0.39611680  0.14282541    -0.38600
O4305       O  0.12514124  0.48448745  0.19032262    -0.39300
O4306       O  0.13383410  0.46118593  0.22026553    -0.39300
C4307       C  0.29060065  0.58169014  0.19522904    -0.11600
C4308       C  0.27723439  0.56466097  0.18175007     0.05400
C4309       C  0.28458438  0.55936792  0.15788176    -0.06900
C4310       C  0.30463285  0.57109573  0.14826201    -0.07700
C4311       C  0.31813870  0.58741481  0.16212505    -0.02200
C4312       C  0.31109478  0.59267567  0.18582580     0.04600
N4313       N  0.32481838  0.60867496  0.20082234     0.67100
H4314       H  0.28596230  0.58563739  0.21375442     0.16000
H4315       H  0.30991030  0.56720866  0.12988638     0.15700
N4316       N  0.27239358  0.54191705  0.14317091     0.74800
O4317       O  0.31763227  0.63007201  0.20379637    -0.38600
O4318       O  0.33914054  0.59982906  0.21598988    -0.38600
O4319       O  0.25866317  0.54924111  0.12669856    -0.39300
O4320       O  0.28107560  0.52094546  0.14149216    -0.39300
C4321       C  0.30912402  0.55605824  0.30251683    -0.11600
C4322       C  0.28406388  0.55813775  0.30140695     0.05400
C4323       C  0.27285500  0.57796584  0.31300127    -0.06900
C4324       C  0.28682135  0.59577508  0.32427952    -0.07700
C4325       C  0.31193774  0.59459066  0.32402621    -0.02200
C4326       C  0.32315676  0.57408136  0.31359241     0.04600
N4327       N  0.34873060  0.57154612  0.31330998     0.67100
H4328       H  0.31797851  0.54106239  0.29357361     0.16000
H4329       H  0.27797031  0.61086668  0.33306806     0.15700
N4330       N  0.24728584  0.58045999  0.31348515     0.74800
O4331       O  0.36006113  0.57783196  0.29478560    -0.38600
O4332       O  0.35837408  0.55664916  0.32735046    -0.38600
O4333       O  0.23619788  0.57499831  0.33242540    -0.39300
O4334       O  0.23744009  0.59463969  0.29887141    -0.39300
C4335       C  0.19098564  0.42953755  0.29605318    -0.11600
C4336       C  0.20381127  0.44938925  0.30527747     0.05400
C4337       C  0.19947440  0.45722644  0.32910470    -0.06900
C4338       C  0.18174534  0.44571049  0.34274882    -0.07700
C4339       C  0.16792797  0.42688854  0.33279919    -0.02200
C4340       C  0.17306513  0.41839479  0.30945717     0.04600
N4341       N  0.15966126  0.39906991  0.29870597     0.67100
H4342       H  0.19372003  0.42372676  0.27758835     0.16000
H4343       H  0.17815147  0.45201560  0.36088581     0.15700
N4344       N  0.21135899  0.47793549  0.33907513     0.74800
O4345       O  0.16874596  0.37823038  0.29826004    -0.38600
O4346       O  0.14312676  0.40400632  0.28397408    -0.38600
O4347       O  0.20043631  0.49787161  0.33938202    -0.39300
O4348       O  0.22861457  0.47483315  0.35349972    -0.39300
C4349       C  0.14676528  0.56143168  0.31874559    -0.11600
C4350       C  0.15417062  0.58515261  0.32313043     0.05400
C4351       C  0.16864441  0.59698476  0.30620296    -0.06900
C4352       C  0.17670012  0.58447185  0.28595367    -0.07700
C4353       C  0.17047780  0.56018756  0.28196921    -0.02200
C4354       C  0.15448354  0.54888679  0.29830534     0.04600
N4355       N  0.14595171  0.52473515  0.29483552     0.67100
H4356       H  0.13460006  0.55271438  0.33115222     0.16000
H4357       H  0.18866116  0.59371385  0.27374805     0.15700
N4358       N  0.17543031  0.62170029  0.30926371     0.74800
O4359       O  0.15542104  0.50805485  0.30685546    -0.38600
O4360       O  0.12502738  0.52159980  0.28645433    -0.38600
O4361       O  0.19617922  0.62657840  0.31724959    -0.39300
O4362       O  0.16428741  0.63749245  0.29747987    -0.39300
C4363       C  0.31933784  0.46951488  0.19658991    -0.11600
C4364       C  0.30393552  0.45533996  0.21055732     0.05400
C4365       C  0.30367794  0.43013555  0.20703948    -0.06900
C4366       C  0.31748064  0.41980839  0.18863010    -0.07700
C4367       C  0.33146569  0.43427468  0.17354943    -0.02200
C4368       C  0.33301975  0.45926553  0.17815220     0.04600
N4369       N  0.34773992  0.47462326  0.16387299     0.67100
H4370       H  0.31935090  0.48898975  0.19882128     0.16000
H4371       H  0.31670312  0.40046629  0.18557000     0.15700
N4372       N  0.28865606  0.41489303  0.22107468     0.74800
O4373       O  0.33803191  0.48664593  0.14734890    -0.38600
O4374       O  0.36783773  0.48144346  0.17214386    -0.38600
O4375       O  0.26922513  0.40710088  0.21207306    -0.39300
O4376       O  0.29790207  0.40384006  0.23851194    -0.39300
C4377       C  0.91504863  0.21362943  0.80068638    -0.11600
C4378       C  0.93890537  0.21958160  0.80688943     0.05400
C4379       C  0.95129827  0.20417224  0.82303651    -0.06900
C4380       C  0.94007128  0.18332057  0.83162674    -0.07700
C4381       C  0.91642038  0.17746821  0.82518040    -0.02200
C4382       C  0.90371204  0.19307230  0.80984593     0.04600
N4383       N  0.87915129  0.18861759  0.80360510     0.67100
H4384       H  0.90503379  0.22490207  0.78842801     0.16000
H4385       H  0.94965882  0.17197639  0.84417699     0.15700
N4386       N  0.97524583  0.20915053  0.83113730     0.74800
O4387       O  0.86295532  0.19979125  0.81497226    -0.38600
O4388       O  0.87435660  0.18012126  0.78300266    -0.38600
O4389       O  0.97819024  0.21806011  0.85191583    -0.39300
O4390       O  0.99247862  0.19796606  0.82143360    -0.39300
C4391       C  0.81807513  0.18569472  0.90659861    -0.11600
C4392       C  0.83828227  0.17769723  0.91912414     0.05400
C4393       C  0.84626428  0.19063069  0.93959410    -0.06900
C4394       C  0.83367778  0.21110938  0.94724731    -0.07700
C4395       C  0.81288592  0.21891120  0.93512648    -0.02200
C4396       C  0.80524897  0.20590191  0.91432710     0.04600
N4397       N  0.78403751  0.21204871  0.90121523     0.67100
H4398       H  0.81214184  0.17603634  0.89057332     0.16000
H4399       H  0.83987150  0.22046496  0.96332611     0.15700
N4400       N  0.86693539  0.18328988  0.95293883     0.74800
O4401       O  0.78626002  0.22383340  0.88207702    -0.38600
O4402       O  0.76533561  0.19945300  0.90408708    -0.38600
O4403       O  0.88627906  0.19500558  0.95061281    -0.39300
O4404       O  0.86384819  0.17117666  0.97175154    -0.39300
C4405       C  0.57656006  0.92404186  0.94140677    -0.11600
C4406       C  0.57412239  0.92494718  0.91645559     0.05400
C4407       C  0.55394699  0.93691999  0.90655546    -0.06900
C4408       C  0.53770577  0.94898560  0.92176055    -0.07700
C4409       C  0.54133067  0.94963223  0.94668563    -0.02200
C4410       C  0.56071103  0.93637357  0.95650290     0.04600
N4411       N  0.56505230  0.93553344  0.98177897     0.67100
H4412       H  0.59144802  0.91423897  0.94926473     0.16000
H4413       H  0.52310325  0.95918321  0.91389893     0.15700
N4414       N  0.55024106  0.93816318  0.88119377     0.74800
O4415       O  0.55758201  0.91746997  0.99320720    -0.38600
O4416       O  0.58240142  0.94761847  0.99034802    -0.38600
O4417       O  0.53375187  0.92547827  0.87177858    -0.39300
O4418       O  0.55748012  0.95664337  0.87028427    -0.39300
C4419       C  0.53748449  0.83987037  0.80168958    -0.11600
C4420       C  0.53278365  0.81534474  0.80566357     0.05400
C4421       C  0.54844746  0.80243287  0.82108607    -0.06900
C4422       C  0.56847740  0.81402725  0.83138144    -0.07700
C4423       C  0.57325504  0.83833171  0.82686672    -0.02200
C4424       C  0.55733100  0.85141575  0.81220789     0.04600
N4425       N  0.56111824  0.87642867  0.80758232     0.67100
H4426       H  0.52591129  0.85014518  0.78991062     0.16000
H4427       H  0.58029581  0.80403778  0.84317208     0.15700
N4428       N  0.54502936  0.77738516  0.82589211     0.74800
O4429       O  0.57117798  0.88235937  0.78822510    -0.38600
O4430       O  0.54841155  0.89178309  0.81858173    -0.38600
O4431       O  0.55787839  0.76213140  0.81491712    -0.39300
O4432       O  0.53535647  0.77147590  0.84545466    -0.39300
C4433       C  0.78679776  0.58146535  0.83143233    -0.11600
C4434       C  0.81138663  0.58273282  0.82637822     0.05400
C4435       C  0.82167135  0.56561879  0.81050242    -0.06900
C4436       C  0.80693810  0.54854360  0.79887704    -0.07700
C4437       C  0.78203211  0.54855625  0.80252476    -0.02200
C4438       C  0.77203470  0.56481299  0.81943766     0.04600
N4439       N  0.74668906  0.56574817  0.82348452     0.67100
H4440       H  0.77884519  0.59426564  0.84393214     0.16000
H4441       H  0.81469812  0.53669882  0.78536045     0.15700
N4442       N  0.84661794  0.56651187  0.80451281     0.74800
O4443       O  0.73826928  0.55611318  0.84210342    -0.38600
O4444       O  0.73444578  0.58159269  0.81291375    -0.38600
O4445       O  0.86063414  0.55109181  0.81339924    -0.39300
O4446       O  0.85293384  0.57748909  0.78580471    -0.39300
C4447       C  0.91936084  0.56871844  0.89684359    -0.11600
C4448       C  0.90451737  0.58486622  0.90947111     0.05400
C4449       C  0.90149961  0.58201339  0.93436521    -0.06900
C4450       C  0.91400700  0.56392319  0.94631142    -0.07700
C4451       C  0.92999977  0.54860001  0.93411851    -0.02200
C4452       C  0.93232417  0.55078301  0.90894560     0.04600
N4453       N  0.94858620  0.53604005  0.89552631     0.67100
H4454       H  0.92142240  0.57052805  0.87758530     0.16000
H4455       H  0.91238194  0.56284137  0.96568984     0.15700
N4456       N  0.88635303  0.59773951  0.94800135     0.74800
O4457       O  0.94019611  0.51837040  0.88366569    -0.38600
O4458       O  0.96860634  0.54483909  0.88945968    -0.38600
O4459       O  0.86592823  0.59019569  0.95436084    -0.39300
O4460       O  0.89581381  0.61516885  0.95940118    -0.39300
C4461       C  0.89492536  0.94861520  0.56067518    -0.11600
C4462       C  0.90295518  0.92527759  0.56547644     0.05400
C4463       C  0.92142393  0.91520262  0.55123034    -0.06900
C4464       C  0.93292652  0.92938284  0.53396929    -0.07700
C4465       C  0.92602987  0.95337489  0.53036304    -0.02200
C4466       C  0.90616926  0.96263593  0.54323303     0.04600
N4467       N  0.89763083  0.98655938  0.53937552     0.67100
H4468       H  0.88008415  0.95613985  0.57085736     0.16000
H4469       H  0.94846739  0.92218104  0.52463828     0.15700
N4470       N  0.92939550  0.89101200  0.55466765     0.74800
O4471       O  0.87980268  0.98944959  0.52560557    -0.38600
O4472       O  0.90267613  0.00284316  0.55461761    -0.38600
O4473       O  0.92246002  0.87482829  0.54006860    -0.39300
O4474       O  0.94803686  0.88741899  0.56712078    -0.39300
C4475       C  0.79180298  0.84400719  0.55999204    -0.11600
C4476       C  0.81551135  0.83696048  0.56437559     0.05400
C4477       C  0.82631516  0.81958147  0.54916369    -0.06900
C4478       C  0.81274930  0.80853061  0.53081901    -0.07700
C4479       C  0.78853136  0.81451585  0.52739272    -0.02200
C4480       C  0.77823961  0.83291202  0.54179626     0.04600
N4481       N  0.75358337  0.83961341  0.53911955     0.67100
H4482       H  0.78360237  0.85783606  0.57117075     0.16000
H4483       H  0.82060320  0.79381407  0.52054759     0.15700
N4484       N  0.85055284  0.81196895  0.55286123     0.74800
O4485       O  0.73817658  0.83068097  0.55308065    -0.38600
O4486       O  0.74871071  0.85901324  0.52850856    -0.38600
O4487       O  0.85431302  0.79254079  0.56386661    -0.39300
O4488       O  0.86678975  0.82019607  0.53941620    -0.39300
C4489       C  0.80532362  0.92197712  0.17146332    -0.11600
C4490       C  0.82820698  0.92999796  0.16502632     0.05400
C4491       C  0.83962028  0.94808927  0.17891803    -0.06900
C4492       C  0.82790622  0.95797446  0.19888583    -0.07700
C4493       C  0.80491332  0.94999320  0.20559703    -0.02200
C4494       C  0.79366829  0.93146271  0.19160197     0.04600
N4495       N  0.77043226  0.92196650  0.19720192     0.67100
H4496       H  0.79669996  0.90768523  0.16107869     0.16000
H4497       H  0.83685586  0.97222932  0.20900464     0.15700
N4498       N  0.86306455  0.95672331  0.17307074     0.74800
O4499       O  0.75249709  0.92896152  0.18523152    -0.38600
O4500       O  0.76914235  0.90202542  0.20785809    -0.38600
O4501       O  0.86496914  0.97668901  0.16254401    -0.39300
O4502       O  0.88087783  0.94879589  0.18464066    -0.39300
C4503       C  0.92560685  0.84923861  0.17658539    -0.11600
C4504       C  0.90796780  0.83583105  0.16427527     0.05400
C4505       C  0.90127848  0.81307237  0.17302871    -0.06900
C4506       C  0.91263574  0.80392985  0.19342499    -0.07700
C4507       C  0.93086729  0.81694297  0.20559101    -0.02200
C4508       C  0.93710811  0.84012137  0.19700413     0.04600
N4509       N  0.95473642  0.85493172  0.20875300     0.67100
H4510       H  0.93027584  0.86713891  0.17041797     0.16000
H4511       H  0.90744497  0.78608549  0.19930455     0.15700
N4512       N  0.88274889  0.79906570  0.16174085     0.74800
O4513       O  0.97567255  0.85584298  0.20009627    -0.38600
O4514       O  0.94768383  0.87204160  0.22210022    -0.38600
O4515       O  0.88867270  0.78141472  0.14854134    -0.39300
O4516       O  0.86191691  0.79946084  0.17068021    -0.39300
C4517       C  0.18563088  0.93040084  0.79261276    -0.11600
C4518       C  0.20017070  0.94443425  0.80815867     0.05400
C4519       C  0.19301940  0.94730710  0.83236203    -0.06900
C4520       C  0.17168940  0.93648296  0.84024241    -0.07700
C4521       C  0.15725224  0.92268029  0.82454039    -0.02200
C4522       C  0.16445838  0.91956495  0.80051963     0.04600
N4523       N  0.15095314  0.90497030  0.78398658     0.67100
H4524       H  0.19030284  0.92823481  0.77381881     0.16000
H4525       H  0.16668671  0.93823527  0.85899224     0.15700
N4526       N  0.20764096  0.95992629  0.84953147     0.74800
O4527       O  0.13709998  0.91521019  0.76928442    -0.38600
O4528       O  0.15843492  0.88401177  0.77909653    -0.38600
O4529       O  0.20103458  0.98049698  0.85682793    -0.39300
O4530       O  0.22190718  0.94791831  0.86238859    -0.39300
C4531       C  0.17648795  0.79762021  0.92095780    -0.11600
C4532       C  0.19248031  0.81100112  0.93548152     0.05400
C4533       C  0.19055384  0.83634141  0.93621201    -0.06900
C4534       C  0.17203153  0.84764515  0.92346335    -0.07700
C4535       C  0.15551100  0.83412869  0.90969649    -0.02200
C4536       C  0.15829467  0.80890565  0.90790431     0.04600
N4537       N  0.14316344  0.79448748  0.89266670     0.67100
H4538       H  0.17782707  0.77810104  0.92015016     0.16000
H4539       H  0.17029300  0.86710441  0.92456725     0.15700
N4540       N  0.20627089  0.85081228  0.95072981     0.74800
O4541       O  0.15054561  0.78899739  0.87190278    -0.38600
O4542       O  0.12698659  0.78169146  0.90206674    -0.38600
O4543       O  0.22283443  0.86250428  0.94061504    -0.39300
O4544       O  0.19930973  0.85749176  0.97130178    -0.39300
C4545       C  0.92960058  0.92121965  0.72924736    -0.11600
C4546       C  0.92950522  0.94647847  0.73071757     0.05400
C4547       C  0.91826097  0.95961119  0.71216347    -0.06900
C4548       C  0.90692165  0.94729315  0.69310958    -0.07700
C4549       C  0.90686837  0.92202237  0.69180511    -0.02200
C4550       C  0.91854929  0.90893860  0.71011805     0.04600
N4551       N  0.91967712  0.88318771  0.70960428     0.67100
H4552       H  0.93810693  0.91077678  0.74326018     0.16000
H4553       H  0.89805666  0.95755721  0.67918928     0.15700
N4554       N  0.91928478  0.98533811  0.71147599     0.74800
O4555       O  0.93851965  0.87332318  0.70166192    -0.38600
O4556       O  0.90649153  0.87149822  0.72379831    -0.38600
O4557       O  0.93494186  0.99511012  0.69837338    -0.39300
O4558       O  0.90074847  0.99720539  0.71702711    -0.39300
C4559       C  0.99750208  0.95198615  0.81827040    -0.11600
C4560       C  0.99185445  0.94498729  0.79451132     0.05400
C4561       C  0.00634158  0.92681754  0.78354302    -0.06900
C4562       C  0.02533388  0.91625517  0.79647860    -0.07700
C4563       C  0.03035429  0.92309242  0.82028041    -0.02200
C4564       C  0.01628199  0.94125091  0.83110547     0.04600
N4565       N  0.02060258  0.94898663  0.85528086     0.67100
H4566       H  0.98699452  0.96572388  0.82737140     0.16000
H4567       H  0.03602537  0.90225624  0.78797666     0.15700
N4568       N  0.00239606  0.91872207  0.75938999     0.74800
O4569       O  0.03270606  0.96798528  0.85893033    -0.38600
O4570       O  0.00673822  0.94163373  0.87156413    -0.38600
O4571       O  0.01653810  0.92592624  0.74327051    -0.39300
O4572       O  0.99092946  0.89929512  0.75590725    -0.39300
C4573       C  0.94551242  0.02409819  0.80840420    -0.11600
C4574       C  0.92984936  0.00883115  0.79538804     0.05400
C4575       C  0.90502757  0.01474007  0.79484123    -0.06900
C4576       C  0.89668037  0.03520981  0.80732624    -0.07700
C4577       C  0.91234727  0.04998129  0.82077263    -0.02200
C4578       C  0.93708049  0.04436305  0.82103754     0.04600
N4579       N  0.95386113  0.05832195  0.83485297     0.67100
H4580       H  0.96458870  0.02014291  0.80909951     0.16000
H4581       H  0.87757988  0.03913932  0.80724687     0.15700
N4582       N  0.88764331  0.99950584  0.78327262     0.74800
O4583       O  0.95976165  0.05100171  0.85543221    -0.38600
O4584       O  0.96780265  0.07253943  0.82405361    -0.38600
O4585       O  0.87534620  0.98544816  0.79606288    -0.39300
O4586       O  0.87922114  0.00587039  0.76324981    -0.39300
C4587       C  0.91549643  0.73470182  0.94416773    -0.11600
C4588       C  0.92768708  0.75174858  0.93022996     0.05400
C4589       C  0.92887370  0.74787042  0.90499424    -0.06900
C4590       C  0.91767520  0.72760259  0.89455081    -0.07700
C4591       C  0.90490196  0.71107621  0.90850450    -0.02200
C4592       C  0.90415061  0.71460363  0.93364575     0.04600
N4593       N  0.89134515  0.69847497  0.94883140     0.67100
H4594       H  0.91455828  0.73702004  0.96350429     0.16000
H4595       H  0.91818807  0.72520182  0.87519649     0.15700
N4596       N  0.93971713  0.76498602  0.88932940     0.74800
O4597       O  0.90310643  0.68300686  0.96044833    -0.38600
O4598       O  0.87086907  0.70467867  0.95638081    -0.38600
O4599       O  0.95970937  0.75990371  0.87988413    -0.39300
O4600       O  0.92636164  0.78022216  0.87919550    -0.39300
C4601       C  0.93284552  0.83642251  0.00149156    -0.11600
C4602       C  0.92829102  0.81180654  0.99721205     0.05400
C4603       C  0.91328666  0.79933841  0.01356590    -0.06900
C4604       C  0.90353212  0.81170086  0.03345821    -0.07700
C4605       C  0.90814642  0.83633239  0.03735662    -0.02200
C4606       C  0.92297338  0.84867131  0.02108158     0.04600
N4607       N  0.92806073  0.87381643  0.02388319     0.67100
H4608       H  0.94386960  0.84665405  0.98922174     0.16000
H4609       H  0.89189400  0.80211538  0.04571728     0.15700
N4610       N  0.90791285  0.77424164  0.01072630     0.74800
O4611       O  0.94798672  0.88006355  0.03297385    -0.38600
O4612       O  0.91701133  0.88855675  0.01073268    -0.38600
O4613       O  0.91931989  0.75932906  0.02337007    -0.39300
O4614       O  0.88760289  0.76818767  0.00237422    -0.39300
C4615       C  0.00324095  0.80190805  0.91661492    -0.11600
C4616       C  0.99049410  0.81492564  0.93422124     0.05400
C4617       C  0.99855476  0.83860578  0.94032208    -0.06900
C4618       C  0.01789154  0.84882891  0.92788539    -0.07700
C4619       C  0.02978858  0.83595965  0.90976421    -0.02200
C4620       C  0.02268900  0.81207904  0.90452107     0.04600
N4621       N  0.03468402  0.79790706  0.88669551     0.67100
H4622       H  0.99804699  0.78358364  0.91193905     0.16000
H4623       H  0.02348827  0.86713838  0.93219280     0.15700
N4624       N  0.98721232  0.85299133  0.95845265     0.74800
O4625       O  0.05053758  0.78314766  0.89338464    -0.38600
O4626       O  0.02444851  0.79452067  0.86665984    -0.38600
O4627       O  0.99775425  0.85568196  0.97843741    -0.39300
O4628       O  0.97213678  0.86867105  0.95205915    -0.39300
C4629       C  0.82086290  0.02578572  0.94893351    -0.11600
C4630       C  0.80269657  0.01358635  0.93595181     0.05400
C4631       C  0.79765088  0.02128566  0.91218974    -0.06900
C4632       C  0.81139214  0.03984594  0.90198772    -0.07700
C4633       C  0.82996646  0.05126692  0.91488764    -0.02200
C4634       C  0.83439814  0.04430636  0.93875818     0.04600
N4635       N  0.85294266  0.05533761  0.95291971     0.67100
H4636       H  0.82494233  0.02082975  0.96727230     0.16000
H4637       H  0.80767502  0.04525777  0.88368894     0.15700
N4638       N  0.77926045  0.01033280  0.89773321     0.74800
O4639       O  0.84713426  0.07127870  0.96817570    -0.38600
O4640       O  0.87235494  0.04397758  0.95589460    -0.38600
O4641       O  0.75987403  0.02169980  0.89458477    -0.39300
O4642       O  0.78521392  0.99443484  0.88248937    -0.39300
C4643       C  0.73491994  0.95452275  0.91408025    -0.11600
C4644       C  0.73793908  0.95174612  0.93894540     0.05400
C4645       C  0.72125344  0.93691760  0.95132702    -0.06900
C4646       C  0.70244828  0.92545458  0.93858979    -0.07700
C4647       C  0.69997321  0.92804153  0.91367148    -0.02200
C4648       C  0.71648709  0.94278333  0.90144759     0.04600
N4649       N  0.71514012  0.94591663  0.87606746     0.67100
H4650       H  0.74744278  0.96541450  0.90396902     0.16000
H4651       H  0.68989437  0.91408870  0.94817165     0.15700
N4652       N  0.72265501  0.93336885  0.97668834     0.74800
O4653       O  0.70557253  0.96487570  0.86816430    -0.38600
O4654       O  0.72986848  0.93465255  0.86291241    -0.38600
O4655       O  0.70783956  0.94430439  0.99002358    -0.39300
O4656       O  0.73220452  0.91425980  0.98428002    -0.39300
C4657       C  0.78910422  0.93964352  0.01596697    -0.11600
C4658       C  0.80335421  0.95247274  0.99968144     0.05400
C4659       C  0.82853064  0.95400439  0.00402235    -0.06900
C4660       C  0.83863816  0.94216836  0.02373410    -0.07700
C4661       C  0.82436325  0.92878976  0.03943894    -0.02200
C4662       C  0.79928048  0.92792955  0.03566721     0.04600
N4663       N  0.78381396  0.91480045  0.05124505     0.67100
H4664       H  0.76979713  0.93851871  0.01338133     0.16000
H4665       H  0.85795823  0.94288862  0.02646507     0.15700
N4666       N  0.84446448  0.96625730  0.98813477     0.74800
O4667       O  0.77221526  0.92629788  0.06708220    -0.38600
O4668       O  0.77612723  0.89440499  0.04438221    -0.38600
O4669       O  0.85281454  0.98654630  0.99453659    -0.39300
O4670       O  0.85581165  0.95398546  0.97268552    -0.39300
C4671       C  0.78324180  0.73899820  0.81508368    -0.11600
C4672       C  0.79659463  0.74987333  0.79634416     0.05400
C4673       C  0.81884161  0.73896630  0.79007035    -0.06900
C4674       C  0.82753964  0.71911143  0.80275223    -0.07700
C4675       C  0.81467807  0.70923097  0.82166420    -0.02200
C4676       C  0.79210617  0.71882787  0.82756799     0.04600
N4677       N  0.77853937  0.70856696  0.84671751     0.67100
H4678       H  0.76598934  0.74632709  0.82038513     0.16000
H4679       H  0.84494179  0.71163237  0.79809312     0.15700
N4680       N  0.83360848  0.74783408  0.77135044     0.74800
O4681       O  0.78369762  0.71443480  0.86810048    -0.38600
O4682       O  0.76687665  0.68933133  0.84282316    -0.38600
O4683       O  0.85213011  0.75976031  0.77725587    -0.39300
O4684       O  0.83369317  0.73617944  0.75173906    -0.39300
C4685       C  0.72721161  0.80495781  0.81732289    -0.11600
C4686       C  0.73872402  0.81752150  0.79870576     0.05400
C4687       C  0.73021482  0.84108061  0.79334396    -0.06900
C4688       C  0.71113257  0.85115025  0.80661590    -0.07700
C4689       C  0.70006687  0.83845269  0.82520986    -0.02200
C4690       C  0.70828165  0.81510902  0.83048449     0.04600
N4691       N  0.69801305  0.80149657  0.84951428     0.67100
H4692       H  0.73295553  0.78694895  0.82201662     0.16000
H4693       H  0.70506048  0.86922944  0.80253815     0.15700
N4694       N  0.74080726  0.85549936  0.77505653     0.74800
O4695       O  0.68256934  0.78550087  0.84438678    -0.38600
O4696       O  0.70937524  0.80012859  0.86912344    -0.38600
O4697       O  0.72949513  0.85805315  0.75554781    -0.39300
O4698       O  0.75610392  0.87131168  0.78116558    -0.39300
C4699       C  0.78437906  0.82930296  0.71844496    -0.11600
C4700       C  0.79877762  0.81382021  0.73253881     0.05400
C4701       C  0.82280193  0.80970553  0.72495981    -0.06900
C4702       C  0.83161458  0.82059884  0.70419536    -0.07700
C4703       C  0.81738078  0.83608572  0.69071391    -0.02200
C4704       C  0.79360404  0.84049730  0.69782627     0.04600
N4705       N  0.77928415  0.85740591  0.68492581     0.67100
H4706       H  0.76599335  0.83308995  0.72362427     0.16000
H4707       H  0.85022727  0.81777686  0.69911853     0.15700
N4708       N  0.83939383  0.79595376  0.73865800     0.74800
O4709       O  0.76906819  0.85068339  0.66569552    -0.38600
O4710       O  0.78241185  0.87967499  0.68884312    -0.38600
O4711       O  0.84721762  0.77668602  0.72933612    -0.39300
O4712       O  0.85252280  0.80703226  0.75371932    -0.39300
C4713       C  0.42802043  0.17987709  0.19716755    -0.11600
C4714       C  0.44173278  0.19621620  0.18333512     0.05400
C4715       C  0.43374043  0.20124344  0.15966878    -0.06900
C4716       C  0.41289470  0.19025586  0.15061462    -0.07700
C4717       C  0.39947031  0.17438972  0.16452778    -0.02200
C4718       C  0.40701061  0.16910064  0.18791504     0.04600
N4719       N  0.39370593  0.15227773  0.20199704     0.67100
H4720       H  0.43331471  0.17571712  0.21540700     0.16000
H4721       H  0.40739060  0.19372569  0.13226408     0.15700
N4722       N  0.44646951  0.21715818  0.14421222     0.74800
O4723       O  0.39729349  0.12997485  0.19895235    -0.38600
O4724       O  0.37448729  0.15911509  0.21194120    -0.38600
O4725       O  0.45922146  0.20809175  0.12772885    -0.39300
O4726       O  0.43862385  0.23833620  0.14173184    -0.39300
C4727       C  0.55933132  0.29956049  0.30754536    -0.11600
C4728       C  0.54451318  0.31039004  0.29039812     0.05400
C4729       C  0.54706247  0.33520857  0.28567538    -0.06900
C4730       C  0.56457781  0.34862076  0.29802898    -0.07700
C4731       C  0.57954970  0.33761835  0.31493711    -0.02200
C4732       C  0.57671304  0.31293291  0.31990521     0.04600
N4733       N  0.59098523  0.30122938  0.33767319     0.67100
H4734       H  0.55765305  0.28041335  0.31106408     0.16000
H4735       H  0.56660499  0.36769623  0.29438148     0.15700
N4736       N  0.53307137  0.34682135  0.26763751     0.74800
O4737       O  0.58236705  0.29860862  0.35843007    -0.38600
O4738       O  0.60786293  0.28759536  0.33091149    -0.38600
O4739       O  0.51616536  0.36054653  0.27412991    -0.39300
O4740       O  0.54200713  0.34938623  0.24700416    -0.39300
C4741       C  0.53428083  0.16839530  0.29137820    -0.11600
C4742       C  0.54896458  0.18562834  0.28003752     0.05400
C4743       C  0.57245197  0.18968721  0.28936390    -0.06900
C4744       C  0.58017438  0.17727778  0.30968600    -0.07700
C4745       C  0.56498997  0.16118278  0.32148770    -0.02200
C4746       C  0.54192230  0.15645960  0.31205285     0.04600
N4747       N  0.52571859  0.14020800  0.32348985     0.67100
H4748       H  0.51613341  0.16496781  0.28499868     0.16000
H4749       H  0.59814861  0.18059979  0.31665191     0.15700
N4750       N  0.58855522  0.20692115  0.27927236     0.74800
O4751       O  0.52319968  0.11920382  0.31483800    -0.38600
O4752       O  0.50922642  0.14882592  0.33651097    -0.38600
O4753       O  0.59097832  0.22714148  0.28968331    -0.39300
O4754       O  0.60524139  0.19941697  0.26583700    -0.39300
C4755       C  0.57538444  0.30386954  0.19177254    -0.11600
C4756       C  0.55999683  0.28961133  0.17723915     0.05400
C4757       C  0.55709453  0.29599288  0.15285547    -0.06900
C4758       C  0.56849873  0.31672892  0.14406167    -0.07700
C4759       C  0.58280964  0.33141345  0.15905458    -0.02200
C4760       C  0.58668276  0.32449835  0.18298274     0.04600
N4761       N  0.60216564  0.33802640  0.19865228     0.67100
H4762       H  0.57796645  0.29968993  0.21058319     0.16000
H4763       H  0.56623215  0.32139252  0.12532477     0.15700
N4764       N  0.54348736  0.28133141  0.13648467     0.74800
O4765       O  0.59293609  0.35284905  0.21329255    -0.38600
O4766       O  0.62296025  0.33000322  0.20290238    -0.38600
O4767       O  0.52322755  0.28873072  0.12945193    -0.39300
O4768       O  0.55450331  0.26594549  0.12379953    -0.39300
C4769       C  0.42282227  0.31638349  0.19938120    -0.11600
C4770       C  0.44774965  0.31953691  0.20066208     0.05400
C4771       C  0.45887667  0.33767217  0.18693405    -0.06900
C4772       C  0.44497230  0.35178112  0.17163045    -0.07700
C4773       C  0.42026051  0.34755811  0.16918565    -0.02200
C4774       C  0.40901383  0.33003648  0.18354525     0.04600
N4775       N  0.38405460  0.32445053  0.18085380     0.67100
H4776       H  0.41429479  0.30198821  0.20931653     0.16000
H4777       H  0.45364400  0.36539324  0.16078506     0.15700
N4778       N  0.48433614  0.34133689  0.18748859     0.74800
O4779       O  0.37795564  0.30755302  0.16669089    -0.38600
O4780       O  0.36967807  0.33093630  0.19717087    -0.38600
O4781       O  0.49682980  0.33323791  0.17032563    -0.39300
O4782       O  0.49279670  0.35816929  0.20046352    -0.39300
C4783       C  0.44051619  0.19487570  0.33465421    -0.11600
C4784       C  0.41795964  0.18688289  0.32692948     0.05400
C4785       C  0.40597085  0.19902641  0.30838993    -0.06900
C4786       C  0.41786594  0.21749256  0.29605946    -0.07700
C4787       C  0.44134688  0.22450803  0.30270787    -0.02200
C4788       C  0.45213962  0.21373108  0.32296003     0.04600
N4789       N  0.47544289  0.22082613  0.33129291     0.67100
H4790       H  0.44926732  0.18618954  0.34968404     0.16000
H4791       H  0.40945464  0.22519752  0.28031609     0.15700
N4792       N  0.38206958  0.19207547  0.30162083     0.74800
O4793       O  0.47678066  0.23505254  0.34911836    -0.38600
O4794       O  0.49305617  0.20720529  0.32680090    -0.38600
O4795       O  0.36461354  0.19976794  0.31393460    -0.39300
O4796       O  0.37904740  0.17377648  0.28823858    -0.39300
C4797       C  0.53675938  0.43040491  0.43677810    -0.11600
C4798       C  0.52071791  0.44412427  0.42309967     0.05400
C4799       C  0.52625837  0.44858989  0.39884852    -0.06900
C4800       C  0.54760774  0.43921994  0.38879395    -0.07700
C4801       C  0.56389204  0.42571985  0.40276674    -0.02200
C4802       C  0.55810987  0.42139751  0.42702696     0.04600
N4803       N  0.57355428  0.40776891  0.44222759     0.67100
H4804       H  0.53325658  0.42742487  0.45567032     0.16000
H4805       H  0.55146221  0.44235657  0.37001215     0.15700
N4806       N  0.51015362  0.46232040  0.38432120     0.74800
O4807       O  0.56802315  0.38611955  0.44638706    -0.38600
O4808       O  0.58666131  0.41899429  0.45719634    -0.38600
O4809       O  0.51410940  0.48454437  0.38147497    -0.39300
O4810       O  0.48952519  0.45391665  0.37954938    -0.39300
C4811       C  0.43913650  0.54789922  0.56793647    -0.11600
C4812       C  0.44753779  0.55834743  0.54677238     0.05400
C4813       C  0.43915343  0.58121826  0.54001409    -0.06900
C4814       C  0.42156004  0.59269286  0.55372940    -0.07700
C4815       C  0.41257214  0.58199132  0.57454443    -0.02200
C4816       C  0.42184555  0.55959338  0.58199194     0.04600
N4817       N  0.41324527  0.54797234  0.60308197     0.67100
H4818       H  0.44487366  0.52988886  0.57274487     0.16000
H4819       H  0.41479566  0.61008368  0.54811516     0.15700
N4820       N  0.44758627  0.59259225  0.51872693     0.74800
O4821       O  0.39783838  0.53131286  0.60083214    -0.38600
O4822       O  0.42595629  0.54892212  0.62189908    -0.38600
O4823       O  0.43462540  0.59192254  0.50006994    -0.39300
O4824       O  0.46380221  0.60849984  0.52059085    -0.39300
C4825       C  0.40727871  0.56748256  0.44364147    -0.11600
C4826       C  0.41970202  0.55115473  0.42859990     0.05400
C4827       C  0.42167509  0.55654687  0.40391647    -0.06900
C4828       C  0.41163033  0.57787665  0.39507493    -0.07700
C4829       C  0.39951022  0.59410917  0.41027060    -0.02200
C4830       C  0.39723002  0.58867998  0.43476586     0.04600
N4831       N  0.38412211  0.60399974  0.45079898     0.67100
H4832       H  0.40569351  0.56413385  0.46272082     0.16000
H4833       H  0.41271775  0.58151967  0.37600747     0.15700
N4834       N  0.43262842  0.54020542  0.38727381     0.74800
O4835       O  0.39561079  0.61851016  0.46422057    -0.38600
O4836       O  0.36301726  0.59799644  0.45657378    -0.38600
O4837       O  0.41922077  0.52642905  0.37490589    -0.39300
O4838       O  0.45349506  0.54486414  0.37972438    -0.39300
C4839       C  0.42420871  0.42468338  0.54024819    -0.11600
C4840       C  0.41611055  0.44681952  0.53081407     0.05400
C4841       C  0.39749104  0.45931025  0.54331160    -0.06900
C4842       C  0.38814108  0.45003721  0.56451509    -0.07700
C4843       C  0.39657234  0.42845578  0.57377180    -0.02200
C4844       C  0.41450832  0.41551877  0.56156709     0.04600
N4845       N  0.42316160  0.39329958  0.57109757     0.67100
H4846       H  0.43858318  0.41480763  0.53150997     0.16000
H4847       H  0.37390174  0.45968238  0.57376334     0.15700
N4848       N  0.38819796  0.48192735  0.53554614     0.74800
O4849       O  0.41115903  0.37423259  0.56744087    -0.38600
O4850       O  0.43817136  0.39396609  0.58816619    -0.38600
O4851       O  0.36758951  0.48228903  0.52595934    -0.39300
O4852       O  0.39614988  0.50097878  0.54540111    -0.39300
C4853       C  0.52145827  0.58094638  0.43822597    -0.11600
C4854       C  0.53421910  0.56203388  0.44877002     0.05400
C4855       C  0.55853948  0.55837579  0.44281100    -0.06900
C4856       C  0.56919681  0.57276634  0.42529082    -0.07700
C4857       C  0.55586723  0.59063029  0.41362726    -0.02200
C4858       C  0.53208086  0.59531058  0.42079955     0.04600
N4859       N  0.51825205  0.61409026  0.41019560     0.67100
H4860       H  0.50264187  0.58368886  0.44256975     0.16000
H4861       H  0.58770670  0.56947235  0.42015562     0.15700
N4862       N  0.57215786  0.53924395  0.45308817     0.74800
O4863       O  0.50343839  0.60871361  0.39374180    -0.38600
O4864       O  0.51556995  0.63361099  0.42175528    -0.38600
O4865       O  0.57518600  0.52007066  0.44104357    -0.39300
O4866       O  0.58638399  0.54406464  0.47021207    -0.39300
C4867       C  0.55618660  0.44508485  0.52685961    -0.11600
C4868       C  0.53689503  0.45740896  0.53717270     0.05400
C4869       C  0.53045044  0.45311824  0.56108535    -0.06900
C4870       C  0.54297620  0.43578517  0.57430056    -0.07700
C4871       C  0.56206717  0.42284224  0.56380911    -0.02200
C4872       C  0.56908585  0.42816164  0.54006162     0.04600
N4873       N  0.58930043  0.41679778  0.52904081     0.67100
H4874       H  0.56090280  0.44821743  0.50825860     0.16000
H4875       H  0.53775528  0.43226697  0.59267793     0.15700
N4876       N  0.51057272  0.46567852  0.57157025     0.74800
O4877       O  0.58556919  0.39962397  0.51441225    -0.38600
O4878       O  0.60864656  0.42865312  0.52747032    -0.38600
O4879       O  0.48946705  0.45846762  0.56698068    -0.39300
O4880       O  0.51369274  0.48706876  0.57898520    -0.39300
loop_ 
_geom_bond_atom_site_label_1 
_geom_bond_atom_site_label_2 
_geom_bond_distance 
_geom_bond_site_symmetry_2 
_ccdc_geom_bond_type 
O1           C17   1.275       .  A
O1           Zn7   2.011       .  S
C2           O18   1.276       .  A
C2           O15   1.273       .  A
C2         C4826   1.487       .  S
O3           C16   1.273       .  A
O3          Cd10   2.081       .  S
O4           C22   1.266       .  A
O4          Cd13   2.013       .  S
O5           C19   1.279       .  A
O5           Cd9   2.092       .  S
O6           C17   1.278       .  A
O6           Cd9   2.067       .  S
Zn7          O18   2.043       .  S
Zn7          O20   1.962       .  S
Zn7          O12   1.924       .  S
O8           C19   1.272       .  A
O8          Cd13   2.055       .  S
Cd9          O11   2.027       .  S
Cd9          O12   1.977       .  S
Cd10         O14   2.071       .  S
Cd10         O23   2.082       .  S
Cd10         O12   2.030       .  S
O11          C21   1.267       .  A
O12         Cd13   1.961       .  S
Cd13         O15   2.043       .  S
O14          C21   1.273       .  A
C16          O20   1.267       .  A
C16        C4854   1.459       .  S
C17        C4798   1.483       .  S
C19        C4840   1.495       .  S
C21        C4868   1.455       .  S
C22          O23   1.274       .  A
C22        C4812   1.454       .  S
O24          C40   1.276       .  A
O24         Zn30   2.016       .  S
C25          O41   1.276       .  A
C25          O38   1.272       .  A
C25        C4742   1.490       .  S
O26          C39   1.279       .  A
O26         Cd33   2.120       .  S
O27          C45   1.268       .  A
O27         Cd36   2.021       .  S
O28          C42   1.277       .  A
O28         Cd32   2.090       .  S
O29          C40   1.279       .  A
O29         Cd32   2.096       .  S
Zn30         O41   2.015       .  S
Zn30         O43   1.966       .  S
Zn30         O35   1.913       .  S
O31          C42   1.275       .  A
O31         Cd36   2.054       .  S
Cd32         O34   2.035       .  S
Cd32         O35   1.996       .  S
Cd33         O37   2.082       .  S
Cd33         O46   2.085       .  S
Cd33         O35   2.033       .  S
O34          C44   1.269       .  A
O35         Cd36   1.975       .  S
Cd36         O38   2.064       .  S
O37          C44   1.276       .  A
C39          O43   1.266       .  A
C39        C4787   1.470       .  S
C40        C4714   1.496       .  S
C42        C4756   1.490       .  S
C44        C4770   1.460       .  S
C45          O46   1.274       .  A
C45        C4728   1.460       .  S
C47        C4672   1.515       .  S
C47          N48   1.369       .  A
C47          N52   1.361       .  A
N48          C49   1.372       .  A
C49        C4700   1.504       .  S
C49          N50   1.367       .  A
N50          C51   1.360       .  A
C51        C4686   1.505       .  S
C51          N52   1.362       .  A
C53        C4644   1.494       .  S
C53          N54   1.366       .  A
C53          N58   1.360       .  A
N54          C55   1.359       .  A
C55        C4630   1.496   1_565  S
C55          N56   1.360       .  A
N56          C57   1.356       .  A
C57        C4658   1.489       .  S
C57          N58   1.364       .  A
C59        C4602   1.491       .  S
C59          N60   1.361       .  A
C59          N64   1.363       .  A
N60          C61   1.366       .  A
C61        C4588   1.490       .  S
C61          N62   1.358       .  A
N62          C63   1.361       .  A
C63        C4616   1.492       .  S
C63          N64   1.355       .  A
C65        C4546   1.481       .  S
C65          N66   1.363       .  A
C65          N70   1.365       .  A
N66          C67   1.360       .  A
C67        C4574   1.494   1_565  S
C67          N68   1.363       .  A
N68          C69   1.362       .  A
C69        C4560   1.505       .  S
C69          N70   1.357       .  A
N71          C76   1.355       .  A
N71          C75   1.356       .  A
N71         H103   1.035       .  S
N72          C79   1.354       .  A
N72          C80   1.353       .  A
N73          C78   1.354       .  A
N73          C77   1.351       .  A
N73         H104   1.036       .  S
N74          C81   1.350       .  A
N74          C82   1.351       .  A
C75          C83   1.387       .  A
C75          C91   1.421       .  A
C76          C92   1.421       .  A
C76          C84   1.387       .  A
C77          C85   1.388       .  A
C77          C94   1.413       .  A
C78          C93   1.412       .  A
C78          C86   1.386       .  A
C79          C91   1.419       .  A
C79          C87   1.387       .  A
C80          C94   1.416       .  A
C80          C88   1.386       .  A
C81          C89   1.387       .  A
C81          C92   1.413       .  A
C82          C90   1.386       .  A
C82          C93   1.412       .  A
C83          C84   1.377       .  A
C83          H95   1.082       .  S
C84          H96   1.082       .  S
C85          C86   1.371       .  A
C85          H97   1.082       .  S
C86          H98   1.082       .  S
C87          C88   1.377       .  A
C87          H99   1.082       .  S
C88         H100   1.082       .  S
C89          C90   1.375       .  A
C89         H101   1.082       .  S
C90         H102   1.082       .  S
C91        C4563   1.497       .  S
C92        C4619   1.486       .  S
C93        C4535   1.487       .  S
C94        C4521   1.484       .  S
N105        C110   1.354       .  A
N105        C109   1.356       .  A
N105        H137   1.034       .  S
N106        C113   1.351       .  A
N106        C114   1.351       .  A
N107        C112   1.352       .  A
N107        C111   1.351       .  A
N107        H138   1.035       .  S
N108        C115   1.352       .  A
N108        C116   1.354       .  A
C109        C117   1.387       .  A
C109        C125   1.420       .  A
C110        C126   1.418       .  A
C110        C118   1.387       .  A
C111        C119   1.389       .  A
C111        C128   1.413       .  A
C112        C127   1.411       .  A
C112        C120   1.386       .  A
C113        C125   1.414       .  A
C113        C121   1.386       .  A
C114        C128   1.413       .  A
C114        C122   1.386       .  A
C115        C123   1.387       .  A
C115        C126   1.419       .  A
C116        C124   1.385       .  A
C116        C127   1.415       .  A
C117        C118   1.374       .  A
C117        H129   1.082       .  S
C118        H130   1.082       .  S
C119        C120   1.370       .  A
C119        H131   1.082       .  S
C120        H132   1.082       .  S
C121        C122   1.375       .  A
C121        H133   1.082       .  S
C122        H134   1.082       .  S
C123        C124   1.378       .  A
C123        H135   1.082       .  S
C124        H136   1.082       .  S
C125       C4661   1.491       .  S
C126       C4605   1.491       .  S
C127       C4504   1.487       .  S
C128       C4490   1.480       .  S
N139        C144   1.351       .  A
N139        C143   1.352       .  A
N139        H171   1.037       .  S
N140        C147   1.354       .  A
N140        C148   1.354       .  A
N141        C146   1.350       .  A
N141        C145   1.350       .  A
N141        H172   1.037       .  S
N142        C149   1.352       .  A
N142        C150   1.353       .  A
C143        C151   1.388       .  A
C143        C159   1.414       .  A
C144        C160   1.413       .  A
C144        C152   1.388       .  A
C145        C153   1.388       .  A
C145        C162   1.410       .  A
C146        C161   1.409       .  A
C146        C154   1.387       .  A
C147        C159   1.420       .  A
C147        C155   1.386       .  A
C148        C162   1.418       .  A
C148        C156   1.385       .  A
C149        C157   1.386       .  A
C149        C160   1.414       .  A
C150        C158   1.386       .  A
C150        C161   1.416       .  A
C151        C152   1.374       .  A
C151        H163   1.083       .  S
C152        H164   1.083       .  S
C153        C154   1.372       .  A
C153        H165   1.082       .  S
C154        H166   1.082       .  S
C155        C156   1.377       .  A
C155        H167   1.082       .  S
C156        H168   1.082       .  S
C157        C158   1.377       .  A
C157        H169   1.082       .  S
C158        H170   1.082       .  S
C159       C4549   1.493       .  S
C160       C4703   1.485       .  S
C161       C4476   1.483       .  S
C162       C4462   1.486       .  S
N173        C178   1.355       .  A
N173        C177   1.354       .  A
N173        H205   1.032       .  S
N174        C181   1.353       .  A
N174        C182   1.353       .  A
N175        C180   1.353       .  A
N175        C179   1.352       .  A
N175        H206   1.035       .  S
N176        C183   1.352       .  A
N176        C184   1.352       .  A
C177        C185   1.387       .  A
C177        C193   1.419       .  A
C178        C194   1.423       .  A
C178        C186   1.388       .  A
C179        C187   1.387       .  A
C179        C196   1.411       .  A
C180        C195   1.413       .  A
C180        C188   1.387       .  A
C181        C193   1.416       .  A
C181        C189   1.386       .  A
C182        C196   1.418       .  A
C182        C190   1.387       .  A
C183        C191   1.386       .  A
C183        C194   1.416       .  A
C184        C192   1.386       .  A
C184        C195   1.415       .  A
C185        C186   1.375       .  A
C185        H197   1.082       .  S
C186        H198   1.082       .  S
C187        C188   1.372       .  A
C187        H199   1.082       .  S
C188        H200   1.082       .  S
C189        C190   1.374       .  A
C189        H201   1.082       .  S
C190        H202   1.082       .  S
C191        C192   1.376       .  A
C191        H203   1.082       .  S
C192        H204   1.082       .  S
C193       C4675   1.490       .  S
C194       C4591   1.494       .  S
C195       C4448   1.487       .  S
C196       C4434   1.485       .  S
N207        C212   1.354       .  A
N207        C211   1.355       .  A
N207        H239   1.037       .  S
N208        C215   1.354       .  A
N208        C216   1.354       .  A
N209        C214   1.352       .  A
N209        C213   1.349       .  A
N209        H240   1.039       .  S
N210        C217   1.354       .  A
N210        C218   1.355       .  A
C211        C219   1.387       .  A
C211        C227   1.418       .  A
C212        C228   1.419       .  A
C212        C220   1.388       .  A
C213        C221   1.388       .  A
C213        C230   1.409       .  A
C214        C229   1.409       .  A
C214        C222   1.387       .  A
C215        C227   1.418       .  A
C215        C223   1.386       .  A
C216        C230   1.416       .  A
C216        C224   1.385       .  A
C217        C225   1.386       .  A
C217        C228   1.419       .  A
C218        C226   1.386       .  A
C218        C229   1.421       .  A
C219        C220   1.377       .  A
C219        H231   1.082       .  S
C220        H232   1.082       .  S
C221        C222   1.373       .  A
C221        H233   1.083       .  S
C222        H234   1.082       .  S
C223        C224   1.378       .  A
C223        H235   1.082       .  S
C224        H236   1.082       .  S
C225        C226   1.375       .  A
C225        H237   1.082       .  S
C226        H238   1.082       .  S
C227       C4689   1.495       .  S
C228       C4647   1.494       .  S
C229       C4406   1.493       .  S
C230       C4423   1.484       .  S
N241        C246   1.356       .  A
N241        C245   1.357       .  A
N241        H273   1.034       .  S
N242        C249   1.352       .  A
N242        C250   1.352       .  A
N243        C248   1.352       .  A
N243        C247   1.352       .  A
N243        H274   1.034       .  S
N244        C251   1.353       .  A
N244        C252   1.355       .  A
C245        C253   1.385       .  A
C245        C261   1.421       .  A
C246        C262   1.426       .  A
C246        C254   1.389       .  A
C247        C255   1.387       .  A
C247        C264   1.412       .  A
C248        C263   1.414       .  A
C248        C256   1.388       .  A
C249        C261   1.414       .  A
C249        C257   1.386       .  A
C250        C264   1.416       .  A
C250        C258   1.387       .  A
C251        C259   1.387       .  A
C251        C262   1.421       .  A
C252        C260   1.385       .  A
C252        C263   1.420       .  A
C253        C254   1.377       .  A
C253        H265   1.082       .  S
C254        H266   1.082       .  S
C255        C256   1.369       .  A
C255        H267   1.081       .  S
C256        H268   1.082       .  S
C257        C258   1.375       .  A
C257        H269   1.082       .  S
C258        H270   1.082       .  S
C259        C260   1.379       .  A
C259        H271   1.082       .  S
C260        H272   1.082       .  S
C261       C4633   1.493       .  S
C262       C4577   1.497       .  S
C263       C4381   1.491       .  S
C264       C4392   1.480       .  S
O275        C291   1.278       .  A
O275       Zn281   2.027       .  S
C276        O292   1.277       .  A
C276        O289   1.266       .  A
C276       C4353   1.480       .  S
O277        C290   1.279       .  A
O277       Cd284   2.103       .  S
O278        C296   1.267       .  A
O278       Cd287   2.007       .  S
O279        C293   1.276       .  A
O279       Cd283   2.066       .  S
O280        C291   1.271       .  A
O280       Cd283   2.059       .  S
Zn281       O292   2.012       .  S
Zn281       O294   1.975       .  S
Zn281       O286   1.914       .  S
O282        C293   1.271       .  A
O282       Cd287   2.055       .  S
Cd283       O285   2.019       .  S
Cd283       O286   1.976       .  S
Cd284       O288   2.118       .  S
Cd284       O297   2.110       .  S
Cd284       O286   2.032       .  S
O285        C295   1.269       .  A
O286       Cd287   1.971       .  S
Cd287       O289   2.027       .  S
O288        C295   1.281       .  A
C290        O294   1.267       .  A
C290       C4322   1.475       .  S
C291       C4308   1.486       .  S
C293       C4294   1.482       .  S
C295       C4364   1.466       .  S
C296        O297   1.279       .  A
C296       C4336   1.466       .  S
O298        C314   1.272       .  A
O298       Zn304   1.987       .  S
C299        O315   1.271       .  A
C299        O312   1.274       .  A
C299       C4210   1.482       .  S
O300        C313   1.282       .  A
O300       Cd307   2.119       .  S
O301        C319   1.269       .  A
O301       Cd310   2.023       .  S
O302        C316   1.278       .  A
O302       Cd306   2.066       .  S
O303        C314   1.276       .  A
O303       Cd306   2.080       .  S
Zn304       O315   2.013       .  S
Zn304       O317   1.948       .  S
Zn304       O309   1.910       .  S
O305        C316   1.268       .  A
O305       Cd310   2.039       .  S
Cd306       O308   2.040       .  S
Cd306       O309   1.977       .  S
Cd307       O311   2.119       .  S
Cd307       O320   2.136       .  S
Cd307       O309   2.018       .  S
O308        C318   1.269       .  A
O309       Cd310   1.962       .  S
Cd310       O312   2.049       .  S
O311        C318   1.281       .  A
C313        O317   1.266       .  A
C313       C4266   1.466       .  S
C314       C4227   1.487       .  S
C316       C4280   1.483       .  S
C318       C4238   1.474       .  S
C319        O320   1.283       .  A
C319       C4252   1.481       .  S
O321        C337   1.273       .  A
O321       Zn327   2.020       .  S
C322        O338   1.276       .  A
C322        O335   1.268       .  A
C322       C4168   1.484       .  S
O323        C336   1.278       .  A
O323       Cd330   2.100       .  S
O324        C342   1.264       .  A
O324       Cd333   1.993       .  S
O325        C339   1.278       .  A
O325       Cd329   2.069       .  S
O326        C337   1.275       .  A
O326       Cd329   2.060       .  S
Zn327       O338   2.004       .  S
Zn327       O340   1.940       .  S
Zn327       O332   1.908       .  S
O328        C339   1.268       .  A
O328       Cd333   2.029       .  S
Cd329       O331   2.021       .  S
Cd329       O332   1.960       .  S
Cd330       O334   2.116       .  S
Cd330       O343   2.109       .  S
Cd330       O332   2.031       .  S
O331        C341   1.268       .  A
O332       Cd333   1.974       .  S
Cd333       O335   2.042       .  S
O334        C341   1.279       .  A
C336        O340   1.264       .  A
C336       C4185   1.465       .  S
C337       C4420   1.485       .  S
C339       C4154   1.479       .  S
C341       C4196   1.468       .  S
C342        O343   1.279       .  A
C342       C4140   1.460       .  S
O344        C360   1.272       .  A
O344       Zn350   2.005       .  S
C345        O361   1.272       .  A
C345        O358   1.274       .  A
C345       C4070   1.478       .  S
O346        C359   1.278       .  A
O346       Cd353   2.111       .  S
O347        C365   1.268       .  A
O347       Cd356   2.017       .  S
O348        C362   1.275       .  A
O348       Cd352   2.058   1_554  S
O349        C360   1.273       .  A
O349       Cd352   2.052       .  S
Zn350       O361   2.002   1_556  S
Zn350       O363   1.957       .  S
Zn350       O355   1.927       .  S
O351        C362   1.271       .  A
O351       Cd356   2.065       .  S
Cd352       O354   2.011       .  S
Cd352       O355   1.962       .  S
Cd353       O357   2.099       .  S
Cd353       O366   2.109       .  S
Cd353       O355   2.035       .  S
O354        C364   1.267       .  A
O355       Cd356   1.970   1_556  S
Cd356       O358   2.042       .  S
O357        C364   1.277       .  A
C359        O363   1.267       .  A
C359       C4532   1.472       .  S
C360       C4084   1.484       .  S
C362       C4112   1.482       .  S
C364       C4098   1.458       .  S
C365        O366   1.278   1_554  A
C365       C4126   1.467       .  S
O367        C383   1.271       .  A
O367       Zn373   2.011   1_455  S
C368        O384   1.275       .  A
C368        O381   1.272       .  A
C368       C4028   1.481       .  S
O369        C382   1.284   1_556  A
O369       Cd376   2.140       .  S
O370        C388   1.269       .  A
O370       Cd379   2.020       .  S
O371        C385   1.273       .  A
O371       Cd375   2.038       .  S
O372        C383   1.272       .  A
O372       Cd375   2.054   1_554  S
Zn373       O384   1.999       .  S
Zn373       O386   1.954       .  S
Zn373       O378   1.916   1_554  S
O374        C385   1.271       .  A
O374       Cd379   2.057   1_455  S
Cd375       O377   2.006       .  S
Cd375       O378   1.962   1_455  S
Cd376       O380   2.112       .  S
Cd376       O389   2.137       .  S
Cd376       O378   2.045       .  S
O377        C387   1.265       .  A
O378       Cd379   1.989       .  S
Cd379       O381   2.061   1_556  S
O380        C387   1.279   1_655  A
C382        O386   1.265       .  A
C382       C4056   1.474       .  S
C383       C4000   1.485       .  S
C385       C4014   1.475       .  S
C387       C4042   1.462       .  S
C388        O389   1.283       .  A
C388       C4451   1.476       .  S
O390        C406   1.276       .  A
O390       Zn396   2.009       .  S
C391        O407   1.274       .  A
C391        O404   1.273       .  A
C391       C3972   1.489       .  S
O392        C405   1.280       .  A
O392       Cd399   2.124       .  S
O393        C411   1.267       .  A
O393       Cd402   2.025       .  S
O394        C408   1.275       .  A
O394       Cd398   2.077   1_565  S
O395        C406   1.275       .  A
O395       Cd398   2.077       .  S
Zn396       O407   2.021   1_545  S
Zn396       O409   1.954       .  S
Zn396       O401   1.911       .  S
O397        C408   1.275       .  A
O397       Cd402   2.049       .  S
Cd398       O400   2.032       .  S
Cd398       O401   1.999       .  S
Cd399       O403   2.120       .  S
Cd399       O412   2.117       .  S
Cd399       O401   2.040       .  S
O400        C410   1.269       .  A
O401       Cd402   1.972   1_545  S
Cd402       O404   2.059       .  S
O403        C410   1.282       .  A
C405        O409   1.266       .  A
C405       C3958   1.471       .  S
C406       C3986   1.486       .  S
C408       C4518   1.482       .  S
C410       C3930   1.475       .  S
C411        O412   1.280   1_565  A
C411       C3944   1.469       .  S
O413        C429   1.270       .  A
O413       Zn419   1.987       .  S
C414        O430   1.271       .  A
C414        O427   1.271       .  A
C414       C3888   1.482       .  S
O415        C428   1.280       .  A
O415       Cd422   2.113       .  S
O416        C434   1.264       .  A
O416       Cd425   1.998       .  S
O417        C431   1.279       .  A
O417       Cd421   2.079       .  S
O418        C429   1.277       .  A
O418       Cd421   2.058       .  S
Zn419       O430   1.986       .  S
Zn419       O432   1.947       .  S
Zn419       O424   1.913       .  S
O420        C431   1.270       .  A
O420       Cd425   2.041       .  S
Cd421       O423   2.033       .  S
Cd421       O424   1.965       .  S
Cd422       O426   2.124       .  S
Cd422       O435   2.123       .  S
Cd422       O424   2.031       .  S
O423        C433   1.270       .  A
O424       Cd425   1.972       .  S
Cd425       O427   2.057       .  S
O426        C433   1.281       .  A
C428        O432   1.264       .  A
C428       C3874   1.474       .  S
C429       C3902   1.481       .  S
C431       C3916   1.486       .  S
C433       C3860   1.475       .  S
C434        O435   1.282       .  A
C434       C4479   1.465       .  S
O436        C452   1.273       .  A
O436       Zn442   2.003   1_455  S
C437        O453   1.272       .  A
C437        O450   1.273       .  A
C437       C3804   1.486       .  S
O438        C451   1.281       .  A
O438       Cd445   2.128       .  S
O439        C457   1.267       .  A
O439       Cd448   2.023       .  S
O440        C454   1.275       .  A
O440       Cd444   2.080       .  S
O441        C452   1.274       .  A
O441       Cd444   2.069   1_455  S
Zn442       O453   1.993       .  S
Zn442       O455   1.960   1_655  S
Zn442       O447   1.915       .  S
O443        C454   1.276       .  A
O443       Cd448   2.061       .  S
Cd444       O446   2.021   1_655  S
Cd444       O447   1.992       .  S
Cd445       O449   2.127       .  S
Cd445       O458   2.135   1_455  S
Cd445       O447   2.040   1_455  S
O446        C456   1.268       .  A
O447       Cd448   1.978       .  S
Cd448       O450   2.063       .  S
O449        C456   1.282       .  A
C451        O455   1.265       .  A
C451       C3846   1.474       .  S
C452       C3832   1.485       .  S
C454       C4507   1.491       .  S
C456       C3793   1.470       .  S
C457        O458   1.283       .  A
C457       C3818   1.474       .  S
O459        C475   1.276       .  A
O459       Zn465   2.011       .  S
C460        O476   1.273       .  A
C460        O473   1.275       .  A
C460       C3751   1.484       .  S
O461        C474   1.282       .  A
O461       Cd468   2.124       .  S
O462        C480   1.267       .  A
O462       Cd471   2.022   1_565  S
O463        C477   1.277       .  A
O463       Cd467   2.081   1_554  S
O464        C475   1.275       .  A
O464       Cd467   2.079       .  S
Zn465       O476   2.019   1_546  S
Zn465       O478   1.975   1_545  S
Zn465       O470   1.930   1_556  S
O466        C477   1.272       .  A
O466       Cd471   2.055       .  S
Cd467       O469   2.022       .  S
Cd467       O470   1.989   1_556  S
Cd468       O472   2.131   1_565  S
Cd468       O481   2.126       .  S
Cd468       O470   2.043   1_566  S
O469        C479   1.269       .  A
O470       Cd471   1.968       .  S
Cd471       O473   2.052   1_545  S
O472        C479   1.282       .  A
C474        O478   1.268       .  A
C474       C4409   1.481       .  S
C475       C3734   1.487       .  S
C477       C3723   1.484       .  S
C479       C3779   1.479       .  S
C480        O481   1.281   1_554  A
C480       C3762   1.473       .  S
C482       C3692   1.498       .  S
C482        N483   1.353       .  A
C482        N487   1.362       .  A
N483        C484   1.362       .  A
C484       C3678   1.488       .  S
C484        N485   1.364       .  A
N485        C486   1.365       .  A
C486       C3709   1.503       .  S
C486        N487   1.368       .  A
N488        C493   1.353       .  A
N488        C492   1.354       .  A
N488        H520   1.038       .  S
N489        C496   1.356       .  A
N489        C497   1.355       .  A
N490        C495   1.351       .  A
N490        C494   1.350       .  A
N490        H521   1.038       .  S
N491        C498   1.351       .  A
N491        C499   1.353       .  A
C492        C500   1.387       .  A
C492        C508   1.416       .  A
C493        C509   1.416       .  A
C493        C501   1.388       .  A
C494        C502   1.387       .  A
C494        C511   1.409       .  A
C495        C510   1.409       .  A
C495        C503   1.386       .  A
C496        C508   1.420       .  A
C496        C504   1.385       .  A
C497        C511   1.422       .  A
C497        C505   1.387       .  A
C498        C506   1.387       .  A
C498        C509   1.415       .  A
C499        C507   1.385       .  A
C499        C510   1.413       .  A
C500        C501   1.376       .  A
C500        H512   1.082       .  S
C501        H513   1.082       .  S
C502        C503   1.371       .  A
C502        H514   1.082       .  S
C503        H515   1.083       .  S
C504        C505   1.377       .  A
C504        H516   1.082       .  S
C505        H517   1.082       .  S
C506        C507   1.377       .  A
C506        H518   1.082       .  S
C507        H519   1.082       .  S
C508       C3695   1.498       .  S
C509       C3664   1.486       .  S
C510       C4829   1.486       .  S
C511       C4325   1.491       .  S
C522       C3622   1.503       .  S
C522        N523   1.370       .  A
C522        N527   1.367       .  A
N523        C524   1.369       .  A
C524       C3650   1.513   1_565  S
C524        N525   1.368       .  A
N525        C526   1.362       .  A
C526       C3636   1.512       .  S
C526        N527   1.356       .  A
N528        C533   1.357       .  A
N528        C532   1.355       .  A
N528        H560   1.036       .  S
N529        C536   1.353       .  A
N529        C537   1.355       .  A
N530        C535   1.351       .  A
N530        C534   1.355       .  A
N530        H561   1.037       .  S
N531        C538   1.355       .  A
N531        C539   1.353       .  A
C532        C540   1.390       .  A
C532        C548   1.424       .  A
C533        C549   1.419       .  A
C533        C541   1.386       .  A
C534        C542   1.387       .  A
C534        C551   1.414       .  A
C535        C550   1.414       .  A
C535        C543   1.388       .  A
C536        C548   1.418       .  A
C536        C544   1.387       .  A
C537        C551   1.419       .  A
C537        C545   1.386       .  A
C538        C546   1.387       .  A
C538        C549   1.420       .  A
C539        C547   1.386       .  A
C539        C550   1.417       .  A
C540        C541   1.373       .  A
C540        H552   1.082       .  S
C541        H553   1.083       .  S
C542        C543   1.368       .  A
C542        H554   1.082       .  S
C543        H555   1.082       .  S
C544        C545   1.372       .  A
C544        H556   1.081       .  S
C545        H557   1.082       .  S
C546        C547   1.377       .  A
C546        H558   1.082       .  S
C547        H559   1.083       .  S
C548       C3608   1.491       .  S
C549       C3625   1.499       .  S
C550       C3594   1.482       .  S
C551       C3877   1.493       .  S
N562        C567   1.359       .  A
N562        C566   1.356       .  A
N562        H594   1.029       .  S
N563        C570   1.352       .  A
N563        C571   1.353       .  A
N564        C569   1.351       .  A
N564        C568   1.354       .  A
N564        H595   1.035       .  S
N565        C572   1.355       .  A
N565        C573   1.352       .  A
C566        C574   1.388       .  A
C566        C582   1.427       .  A
C567        C583   1.428       .  A
C567        C575   1.387       .  A
C568        C576   1.388       .  A
C568        C585   1.416       .  A
C569        C584   1.414       .  A
C569        C577   1.389       .  A
C570        C582   1.422       .  A
C570        C578   1.388       .  A
C571        C585   1.419       .  A
C571        C579   1.385       .  A
C572        C580   1.388       .  A
C572        C583   1.426       .  A
C573        C581   1.386       .  A
C573        C584   1.419       .  A
C574        C575   1.375       .  A
C574        H586   1.082       .  S
C575        H587   1.082       .  S
C576        C577   1.367       .  A
C576        H588   1.082       .  S
C577        H589   1.082       .  S
C578        C579   1.375       .  A
C578        H590   1.082       .  S
C579        H591   1.082       .  S
C580        C581   1.377       .  A
C580        H592   1.082       .  S
C581        H593   1.083       .  S
C582       C3706   1.494       .  S
C583       C3639   1.506       .  S
C584       C3765   1.481       .  S
C585       C4129   1.491       .  S
C596       C3580   1.486       .  S
C596        N597   1.366       .  A
C596        N601   1.367       .  A
N597        C598   1.362       .  A
C598       C3552   1.497       .  S
C598        N599   1.361       .  A
N599        C600   1.358   1_565  A
C600       C3566   1.503       .  S
C600        N601   1.355   1_545  A
C602       C3538   1.497       .  S
C602        N603   1.367       .  A
C602        N607   1.371       .  A
N603        C604   1.358       .  A
C604       C3611   1.500       .  S
C604        N605   1.355       .  A
N605        C606   1.356       .  A
C606       C3667   1.501       .  S
C606        N607   1.364       .  A
N608        C613   1.353       .  A
N608        C612   1.353       .  A
N608        H640   1.037       .  S
N609        C616   1.351       .  A
N609        C617   1.351       .  A
N610        C615   1.350       .  A
N610        C614   1.348       .  A
N610        H641   1.033       .  S
N611        C618   1.346       .  A
N611        C619   1.349       .  A
C612        C620   1.387       .  A
C612        C628   1.414       .  A
C613        C629   1.414       .  A
C613        C621   1.388       .  A
C614        C622   1.387       .  A
C614        C631   1.409       .  A
C615        C630   1.414       .  A
C615        C623   1.390       .  A
C616        C628   1.415       .  A
C616        C624   1.387       .  A
C617        C631   1.412       .  A
C617        C625   1.385       .  A
C618        C626   1.387       .  A
C618        C629   1.408       .  A
C619        C627   1.385       .  A
C619        C630   1.409       .  A
C620        C621   1.372       .  A
C620        H632   1.082       .  S
C621        H633   1.082       .  S
C622        C623   1.365       .  A
C622        H634   1.082       .  S
C623        H635   1.081       .  S
C624        C625   1.375       .  A
C624        H636   1.082       .  S
C625        H637   1.082       .  S
C626        C627   1.372       .  A
C626        H638   1.082       .  S
C627        H639   1.082       .  S
C628       C3555   1.488       .  S
C629       C3541   1.475       .  S
C630       C4157   1.476       .  S
C631       C3975   1.476       .  S
N642        C647   1.358       .  A
N642        C646   1.357       .  A
N642        H674   1.029       .  S
N643        C650   1.353       .  A
N643        C651   1.355       .  A
N644        C649   1.348       .  A
N644        C648   1.350       .  A
N644        H675   1.031       .  S
N645        C652   1.355       .  A
N645        C653   1.353       .  A
C646        C654   1.387       .  A
C646        C662   1.425       .  A
C647        C663   1.426       .  A
C647        C655   1.388       .  A
C648        C656   1.387       .  A
C648        C665   1.408       .  A
C649        C664   1.409       .  A
C649        C657   1.389       .  A
C650        C662   1.420       .  A
C650        C658   1.387       .  A
C651        C665   1.418       .  A
C651        C659   1.385       .  A
C652        C660   1.387       .  A
C652        C663   1.421       .  A
C653        C661   1.387       .  A
C653        C664   1.419       .  A
C654        C655   1.377       .  A
C654        H666   1.082       .  S
C655        H667   1.082       .  S
C656        C657   1.370       .  A
C656        H668   1.083       .  S
C657        H669   1.082       .  S
C658        C659   1.374       .  A
C658        H670   1.082       .  S
C659        H671   1.082       .  S
C660        C661   1.377       .  A
C660        H672   1.082       .  S
C661        H673   1.083       .  S
C662       C3569   1.495       .  S
C663       C3653   1.500       .  S
C664       C4784   1.477       .  S
C665       C4269   1.485       .  S
N676        C681   1.355       .  A
N676        C680   1.351       .  A
N676        H708   1.038       .  S
N677        C684   1.350       .  A
N677        C685   1.353       .  A
N678        C683   1.347       .  A
N678        C682   1.351       .  A
N678        H709   1.037       .  S
N679        C686   1.349       .  A
N679        C687   1.347       .  A
C680        C688   1.388       .  A
C680        C696   1.416       .  A
C681        C697   1.415       .  A
C681        C689   1.386       .  A
C682        C690   1.387       .  A
C682        C699   1.409       .  A
C683        C698   1.406       .  A
C683        C691   1.387       .  A
C684        C696   1.417       .  A
C684        C692   1.388       .  A
C685        C699   1.414       .  A
C685        C693   1.385       .  A
C686        C694   1.386       .  A
C686        C697   1.407       .  A
C687        C695   1.387       .  A
C687        C698   1.407       .  A
C688        C689   1.376       .  A
C688        H700   1.082       .  S
C689        H701   1.083       .  S
C690        C691   1.371       .  A
C690        H702   1.082       .  S
C691        H703   1.082       .  S
C692        C693   1.376       .  A
C692        H704   1.082       .  S
C693        H705   1.082       .  S
C694        C695   1.373       .  A
C694        H706   1.082       .  S
C695        H707   1.083       .  S
C696       C3583   1.485       .  S
C697       C3681   1.485       .  S
C698       C3835   1.468       .  S
C699       C3524   1.486       .  S
O710        C726   1.267       .  A
O710       Zn716   1.971       .  S
C711        O727   1.269       .  A
C711        O724   1.277       .  A
C711       C3597   1.483       .  S
O712        C725   1.280   1_545  A
O712       Cd719   2.126       .  S
O713        C731   1.266       .  A
O713       Cd722   2.010       .  S
O714        C728   1.279       .  A
O714       Cd718   2.073       .  S
O715        C726   1.279       .  A
O715       Cd718   2.083   1_565  S
Zn716       O727   1.986       .  S
Zn716       O729   1.948       .  S
Zn716       O721   1.917   1_565  S
O717        C728   1.272       .  A
O717       Cd722   2.067       .  S
Cd718       O720   2.030       .  S
Cd718       O721   1.975       .  S
Cd719       O723   2.108       .  S
Cd719       O732   2.115       .  S
Cd719       O721   2.030       .  S
O720        C730   1.268       .  A
O721       Cd722   1.975       .  S
Cd722       O724   2.069   1_545  S
O723        C730   1.280       .  A
C725        O729   1.264       .  A
C725       C3499   1.471       .  S
C726       C4493   1.485       .  S
C728       C3513   1.492       .  S
C730       C3468   1.470       .  S
C731        O732   1.281       .  A
C731       C3482   1.466       .  S
O733        C749   1.276       .  A
O733       Zn739   2.014       .  S
C734        O750   1.276       .  A
C734        O747   1.274       .  A
C734       C3454   1.489       .  S
O735        C748   1.281       .  A
O735       Cd742   2.129       .  S
O736        C754   1.268       .  A
O736       Cd745   2.017   1_554  S
O737        C751   1.272       .  A
O737       Cd741   2.048       .  S
O738        C749   1.271       .  A
O738       Cd741   2.049       .  S
Zn739       O750   2.009   1_556  S
Zn739       O752   1.982   1_556  S
Zn739       O744   1.902       .  S
O740        C751   1.275       .  A
O740       Cd745   2.073       .  S
Cd741       O743   2.009       .  S
Cd741       O744   1.973       .  S
Cd742       O746   2.108   1_554  S
Cd742       O755   2.111       .  S
Cd742       O744   2.038   1_554  S
O743        C753   1.268       .  A
O744       Cd745   1.992       .  S
Cd745       O747   2.078   1_556  S
O746        C753   1.278       .  A
C748        O752   1.269       .  A
C748       C3398   1.481       .  S
C749       C4395   1.485       .  S
C751       C3440   1.477       .  S
C753       C3412   1.472       .  S
C754        O755   1.281       .  A
C754       C3426   1.466       .  S
C756       C3356   1.489       .  S
C756        N757   1.367       .  A
C756        N761   1.367       .  A
N757        C758   1.355       .  A
C758       C3387   1.501       .  S
C758        N759   1.357       .  A
N759        C760   1.358       .  A
C760       C3370   1.492       .  S
C760        N761   1.362       .  A
C762       C3314   1.490       .  S
C762        N763   1.362       .  A
C762        N767   1.361       .  A
N763        C764   1.357       .  A
C764       C3328   1.496   1_556  S
C764        N765   1.356       .  A
N765        C766   1.367       .  A
C766       C3342   1.492       .  S
C766        N767   1.364       .  A
C768       C3300   1.487       .  S
C768        N769   1.362       .  A
C768        N773   1.362       .  A
N769        C770   1.354       .  A
C770       C3286   1.503       .  S
C770        N771   1.364       .  A
N771        C772   1.366       .  A
C772       C3272   1.496       .  S
C772        N773   1.362       .  A
C774       C3244   1.502       .  S
C774        N775   1.359       .  A
C774        N779   1.365       .  A
N775        C776   1.362       .  A
C776       C3230   1.496       .  S
C776        N777   1.357       .  A
N777        C778   1.365       .  A
C778       C3258   1.494   1_556  S
C778        N779   1.364       .  A
N780        C785   1.355       .  A
N780        C784   1.355       .  A
N780        H812   1.037       .  S
N781        C788   1.351       .  A
N781        C789   1.352       .  A
N782        C787   1.349       .  A
N782        C786   1.350       .  A
N782        H813   1.035       .  S
N783        C790   1.352       .  A
N783        C791   1.353       .  A
C784        C792   1.388       .  A
C784        C800   1.420       .  A
C785        C801   1.417       .  A
C785        C793   1.386       .  A
C786        C794   1.390       .  A
C786        C803   1.414       .  A
C787        C802   1.411       .  A
C787        C795   1.388       .  A
C788        C800   1.415       .  A
C788        C796   1.385       .  A
C789        C803   1.418       .  A
C789        C797   1.387       .  A
C790        C798   1.387       .  A
C790        C801   1.418       .  A
C791        C799   1.385       .  A
C791        C802   1.414       .  A
C792        C793   1.374       .  A
C792        H804   1.082       .  S
C793        H805   1.082       .  S
C794        C795   1.368       .  A
C794        H806   1.081       .  S
C795        H807   1.082       .  S
C796        C797   1.376       .  A
C796        H808   1.082       .  S
C797        H809   1.082       .  S
C798        C799   1.375       .  A
C798        H810   1.082       .  S
C799        H811   1.082       .  S
C800       C3233   1.491       .  S
C801       C3289   1.493       .  S
C802       C4171   1.479       .  S
C803       C4101   1.482       .  S
N814        C819   1.350       .  A
N814        C818   1.355       .  A
N814        H846   1.040       .  S
N815        C822   1.357       .  A
N815        C823   1.354       .  A
N816        C821   1.354       .  A
N816        C820   1.350       .  A
N816        H847   1.039       .  S
N817        C824   1.353       .  A
N817        C825   1.356       .  A
C818        C826   1.387       .  A
C818        C834   1.414       .  A
C819        C835   1.413       .  A
C819        C827   1.388       .  A
C820        C828   1.388       .  A
C820        C837   1.413       .  A
C821        C836   1.413       .  A
C821        C829   1.386       .  A
C822        C834   1.421       .  A
C822        C830   1.385       .  A
C823        C837   1.422       .  A
C823        C831   1.387       .  A
C824        C832   1.386       .  A
C824        C835   1.418       .  A
C825        C833   1.384       .  A
C825        C836   1.418       .  A
C826        C827   1.376       .  A
C826        H838   1.082       .  S
C827        H839   1.083       .  S
C828        C829   1.376       .  A
C828        H840   1.082       .  S
C829        H841   1.082       .  S
C830        C831   1.376       .  A
C830        H842   1.082       .  S
C831        H843   1.082       .  S
C832        C833   1.375       .  A
C832        H844   1.082       .  S
C833        H845   1.082       .  S
C834       C3275   1.502       .  S
C835       C3317   1.487       .  S
C836       C3443   1.502       .  S
C837       C3216   1.490       .  S
N848        C853   1.354       .  A
N848        C852   1.356       .  A
N848        H880   1.035       .  S
N849        C856   1.350       .  A
N849        C857   1.349       .  A
N850        C855   1.348       .  A
N850        C854   1.348       .  A
N850        H881   1.035       .  S
N851        C858   1.349       .  A
N851        C859   1.350       .  A
C852        C860   1.386       .  A
C852        C868   1.419       .  A
C853        C869   1.420       .  A
C853        C861   1.388       .  A
C854        C862   1.387       .  A
C854        C871   1.406       .  A
C855        C870   1.408       .  A
C855        C863   1.388       .  A
C856        C868   1.411       .  A
C856        C864   1.386       .  A
C857        C871   1.409       .  A
C857        C865   1.386       .  A
C858        C866   1.387       .  A
C858        C869   1.412       .  A
C859        C867   1.386       .  A
C859        C870   1.411       .  A
C860        C861   1.377       .  A
C860        H872   1.082       .  S
C861        H873   1.082       .  S
C862        C863   1.370       .  A
C862        H874   1.083       .  S
C863        H875   1.082       .  S
C864        C865   1.374       .  A
C864        H876   1.082       .  S
C865        H877   1.082       .  S
C866        C867   1.376       .  A
C866        H878   1.082       .  S
C867        H879   1.083       .  S
C868       C3373   1.489       .  S
C869       C3303   1.483       .  S
C870       C4843   1.475       .  S
C871       C4241   1.474       .  S
N882        C887   1.356       .  A
N882        C886   1.357       .  A
N882        H914   1.035       .  S
N883        C890   1.353       .  A
N883        C891   1.352       .  A
N884        C889   1.351       .  A
N884        C888   1.350       .  A
N884        H915   1.036       .  S
N885        C892   1.351       .  A
N885        C893   1.351       .  A
C886        C894   1.386       .  A
C886        C902   1.422       .  A
C887        C903   1.422       .  A
C887        C895   1.387       .  A
C888        C896   1.387       .  A
C888        C905   1.409       .  A
C889        C904   1.411       .  A
C889        C897   1.388       .  A
C890        C902   1.416       .  A
C890        C898   1.386       .  A
C891        C905   1.415       .  A
C891        C899   1.386       .  A
C892        C900   1.387       .  A
C892        C903   1.415       .  A
C893        C901   1.386       .  A
C893        C904   1.415       .  A
C894        C895   1.377       .  A
C894        H906   1.082       .  S
C895        H907   1.082       .  S
C896        C897   1.373       .  A
C896        H908   1.082       .  S
C897        H909   1.082       .  S
C898        C899   1.372       .  A
C898        H910   1.082       .  S
C899        H911   1.082       .  S
C900        C901   1.376       .  A
C900        H912   1.082       .  S
C901        H913   1.083       .  S
C902       C3331   1.497       .  S
C903       C3261   1.491       .  S
C904       C4367   1.483       .  S
C905       C4773   1.480       .  S
N916        C921   1.353       .  A
N916        C920   1.352       .  A
N916        H948   1.038       .  S
N917        C924   1.352       .  A
N917        C925   1.354       .  A
N918        C923   1.353       .  A
N918        C922   1.355       .  A
N918        H949   1.037       .  S
N919        C926   1.352       .  A
N919        C927   1.353       .  A
C920        C928   1.388       .  A
C920        C936   1.415       .  A
C921        C937   1.415       .  A
C921        C929   1.388       .  A
C922        C930   1.387       .  A
C922        C939   1.417       .  A
C923        C938   1.414       .  A
C923        C931   1.386       .  A
C924        C936   1.416       .  A
C924        C932   1.386       .  A
C925        C939   1.418       .  A
C925        C933   1.386       .  A
C926        C934   1.386       .  A
C926        C937   1.415       .  A
C927        C935   1.386       .  A
C927        C938   1.415       .  A
C928        C929   1.374       .  A
C928        H940   1.082       .  S
C929        H941   1.082       .  S
C930        C931   1.372       .  A
C930        H942   1.082       .  S
C931        H943   1.082       .  S
C932        C933   1.375       .  A
C932        H944   1.082       .  S
C933        H945   1.082       .  S
C934        C935   1.376       .  A
C934        H946   1.082       .  S
C935        H947   1.082       .  S
C936       C3345   1.486       .  S
C937       C3359   1.487       .  S
C938       C3989   1.489       .  S
C939       C3776   1.497       .  S
N950        C955   1.354       .  A
N950        C954   1.352       .  A
N950        H982   1.038       .  S
N951        C958   1.350       .  A
N951        C959   1.351       .  A
N952        C957   1.351       .  A
N952        C956   1.352       .  A
N952        H983   1.040       .  S
N953        C960   1.350       .  A
N953        C961   1.350       .  A
C954        C962   1.388       .  A
C954        C970   1.420       .  A
C955        C971   1.419       .  A
C955        C963   1.387       .  A
C956        C964   1.386       .  A
C956        C973   1.410       .  A
C957        C972   1.413       .  A
C957        C965   1.388       .  A
C958        C970   1.415       .  A
C958        C966   1.387       .  A
C959        C973   1.412       .  A
C959        C967   1.386       .  A
C960        C968   1.387       .  A
C960        C971   1.414       .  A
C961        C969   1.385       .  A
C961        C972   1.411       .  A
C962        C963   1.375       .  A
C962        H974   1.082       .  S
C963        H975   1.082       .  S
C964        C965   1.367       .  A
C964        H976   1.082       .  S
C965        H977   1.082       .  S
C966        C967   1.377       .  A
C966        H978   1.082       .  S
C967        H979   1.083       .  S
C968        C969   1.374       .  A
C968        H980   1.082       .  S
C969        H981   1.082       .  S
C970       C3247   1.484       .  S
C971       C3384   1.488       .  S
C972       C3202   1.484       .  S
C973       C4045   1.481       .  S
C984       C3188   1.505       .  S
C984        N985   1.355       .  A
C984        N989   1.362       .  A
N985        C986   1.365       .  A
C986       C3163   1.485       .  S
C986        N987   1.362       .  A
N987        C988   1.361       .  A
C988       C3174   1.495       .  S
C988        N989   1.363       .  A
N990        C995   1.353       .  A
N990        C994   1.355       .  A
N990       H1022   1.034       .  S
N991        C998   1.349       .  A
N991        C999   1.349       .  A
N992        C997   1.350       .  A
N992        C996   1.348       .  A
N992       H1023   1.036       .  S
N993       C1000   1.349       .  A
N993       C1001   1.351       .  A
C994       C1002   1.387       .  A
C994       C1010   1.419       .  A
C995       C1011   1.419       .  A
C995       C1003   1.387       .  A
C996       C1004   1.390       .  A
C996       C1013   1.410       .  A
C997       C1012   1.405       .  A
C997       C1005   1.385       .  A
C998       C1010   1.410       .  A
C998       C1006   1.387       .  A
C999       C1013   1.409       .  A
C999       C1007   1.386       .  A
C1000      C1008   1.387       .  A
C1000      C1011   1.413       .  A
C1001      C1009   1.385       .  A
C1001      C1012   1.411       .  A
C1002      C1003   1.376       .  A
C1002      H1014   1.082       .  S
C1003      H1015   1.082       .  S
C1004      C1005   1.370       .  A
C1004      H1016   1.081       .  S
C1005      H1017   1.082       .  S
C1006      C1007   1.373       .  A
C1006      H1018   1.082       .  S
C1007      H1019   1.082       .  S
C1008      C1009   1.374       .  A
C1008      H1020   1.082       .  S
C1009      H1021   1.083       .  S
C1010      C3160   1.484       .  S
C1011      C3149   1.484       .  S
C1012      C4857   1.478       .  S
C1013      C3905   1.472       .  S
C1024      C3132   1.500   1_554  S
C1024      N1025   1.359       .  A
C1024      N1029   1.364       .  A
N1025      C1026   1.364       .  A
C1026      C3104   1.493       .  S
C1026      N1027   1.360       .  A
N1027      C1028   1.365       .  A
C1028      C3118   1.499       .  S
C1028      N1029   1.358       .  A
C1030      C3065   1.499       .  S
C1030      N1031   1.364       .  A
C1030      N1035   1.368       .  A
N1031      C1032   1.357       .  A
C1032      C3093   1.501   1_554  S
C1032      N1033   1.360       .  A
N1033      C1034   1.360       .  A
C1034      C3076   1.497       .  S
C1034      N1035   1.364       .  A
C1036      C3048   1.490       .  S
C1036      N1037   1.366       .  A
C1036      N1041   1.366       .  A
N1037      C1038   1.362       .  A
C1038      C3034   1.493       .  S
C1038      N1039   1.357       .  A
N1039      C1040   1.352       .  A
C1040      C3146   1.493       .  S
C1040      N1041   1.352       .  A
N1042      C1047   1.351       .  A
N1042      C1046   1.351       .  A
N1042      H1074   1.035       .  S
N1043      C1050   1.349       .  A
N1043      C1051   1.349       .  A
N1044      C1049   1.351       .  A
N1044      C1048   1.349       .  A
N1044      H1075   1.037       .  S
N1045      C1052   1.347       .  A
N1045      C1053   1.349       .  A
C1046      C1054   1.388       .  A
C1046      C1062   1.413       .  A
C1047      C1063   1.413       .  A
C1047      C1055   1.387       .  A
C1048      C1056   1.387       .  A
C1048      C1065   1.409       .  A
C1049      C1064   1.408       .  A
C1049      C1057   1.386       .  A
C1050      C1062   1.411       .  A
C1050      C1058   1.387       .  A
C1051      C1065   1.411       .  A
C1051      C1059   1.386       .  A
C1052      C1060   1.388       .  A
C1052      C1063   1.409       .  A
C1053      C1061   1.385       .  A
C1053      C1064   1.407       .  A
C1054      C1055   1.373       .  A
C1054      H1066   1.082       .  S
C1055      H1067   1.082       .  S
C1056      C1057   1.371       .  A
C1056      H1068   1.082       .  S
C1057      H1069   1.082       .  S
C1058      C1059   1.375       .  A
C1058      H1070   1.083       .  S
C1059      H1071   1.082       .  S
C1060      C1061   1.374       .  A
C1060      H1072   1.082       .  S
C1061      H1073   1.082       .  S
C1062      C3062   1.477       .  S
C1063      C3037   1.474       .  S
C1064      C4311   1.478       .  S
C1065      C4115   1.476       .  S
N1076      C1081   1.356       .  A
N1076      C1080   1.351       .  A
N1076      H1108   1.036       .  S
N1077      C1084   1.348       .  A
N1077      C1085   1.353       .  A
N1078      C1083   1.346       .  A
N1078      C1082   1.352       .  A
N1078      H1109   1.037       .  S
N1079      C1086   1.352       .  A
N1079      C1087   1.349       .  A
C1080      C1088   1.389       .  A
C1080      C1096   1.417       .  A
C1081      C1097   1.416       .  A
C1081      C1089   1.385       .  A
C1082      C1090   1.385       .  A
C1082      C1099   1.407       .  A
C1083      C1098   1.408       .  A
C1083      C1091   1.390       .  A
C1084      C1096   1.414       .  A
C1084      C1092   1.389       .  A
C1085      C1099   1.411       .  A
C1085      C1093   1.384       .  A
C1086      C1094   1.386       .  A
C1086      C1097   1.415       .  A
C1087      C1095   1.387       .  A
C1087      C1098   1.413       .  A
C1088      C1089   1.375       .  A
C1088      H1100   1.082       .  S
C1089      H1101   1.082       .  S
C1090      C1091   1.371       .  A
C1090      H1102   1.082       .  S
C1091      H1103   1.082       .  S
C1092      C1093   1.376       .  A
C1092      H1104   1.082       .  S
C1093      H1105   1.083       .  S
C1094      C1095   1.375       .  A
C1094      H1106   1.082       .  S
C1095      H1107   1.083       .  S
C1096      C3051   1.475       .  S
C1097      C3107   1.495       .  S
C1098      C3429   1.469       .  S
C1099      C4759   1.487       .  S
N1110      C1115   1.356       .  A
N1110      C1114   1.354       .  A
N1110      H1142   1.034       .  S
N1111      C1118   1.352       .  A
N1111      C1119   1.353       .  A
N1112      C1117   1.348       .  A
N1112      C1116   1.350       .  A
N1112      H1143   1.036       .  S
N1113      C1120   1.353       .  A
N1113      C1121   1.352       .  A
C1114      C1122   1.389       .  A
C1114      C1130   1.422       .  A
C1115      C1131   1.420       .  A
C1115      C1123   1.387       .  A
C1116      C1124   1.386       .  A
C1116      C1133   1.407       .  A
C1117      C1132   1.412       .  A
C1117      C1125   1.391       .  A
C1118      C1130   1.417       .  A
C1118      C1126   1.387       .  A
C1119      C1133   1.416       .  A
C1119      C1127   1.385       .  A
C1120      C1128   1.386       .  A
C1120      C1131   1.418       .  A
C1121      C1129   1.386       .  A
C1121      C1132   1.416       .  A
C1122      C1123   1.372       .  A
C1122      H1134   1.082       .  S
C1123      H1135   1.082       .  S
C1124      C1125   1.367       .  A
C1124      H1136   1.083       .  S
C1125      H1137   1.081       .  S
C1126      C1127   1.376       .  A
C1126      H1138   1.082       .  S
C1127      H1139   1.082       .  S
C1128      C1129   1.377       .  A
C1128      H1140   1.082       .  S
C1129      H1141   1.082       .  S
C1130      C3090   1.489       .  S
C1131      C3135   1.492       .  S
C1132      C3020   1.479       .  S
C1133      C4182   1.483       .  S
N1144      C1149   1.354       .  A
N1144      C1148   1.356       .  A
N1144      H1176   1.042       .  S
N1145      C1152   1.352       .  A
N1145      C1153   1.351       .  A
N1146      C1151   1.352       .  A
N1146      C1150   1.350       .  A
N1146      H1177   1.040       .  S
N1147      C1154   1.354       .  A
N1147      C1155   1.356       .  A
C1148      C1156   1.387       .  A
C1148      C1164   1.422       .  A
C1149      C1165   1.421       .  A
C1149      C1157   1.388       .  A
C1150      C1158   1.388       .  A
C1150      C1167   1.416       .  A
C1151      C1166   1.416       .  A
C1151      C1159   1.387       .  A
C1152      C1164   1.416       .  A
C1152      C1160   1.386       .  A
C1153      C1167   1.416       .  A
C1153      C1161   1.387       .  A
C1154      C1162   1.388       .  A
C1154      C1165   1.423       .  A
C1155      C1163   1.386       .  A
C1155      C1166   1.422       .  A
C1156      C1157   1.375       .  A
C1156      H1168   1.082       .  S
C1157      H1169   1.082       .  S
C1158      C1159   1.371       .  A
C1158      H1170   1.082       .  S
C1159      H1171   1.082       .  S
C1160      C1161   1.375       .  A
C1160      H1172   1.082       .  S
C1161      H1173   1.082       .  S
C1162      C1163   1.376       .  A
C1162      H1174   1.082       .  S
C1163      H1175   1.082       .  S
C1164      C3121   1.493       .  S
C1165      C3177   1.493       .  S
C1166      C3821   1.491       .  S
C1167      C4031   1.480       .  S
N1178      C1183   1.355       .  A
N1178      C1182   1.356       .  A
N1178      H1210   1.037       .  S
N1179      C1186   1.354       .  A
N1179      C1187   1.353       .  A
N1180      C1185   1.354       .  A
N1180      C1184   1.352       .  A
N1180      H1211   1.036       .  S
N1181      C1188   1.353       .  A
N1181      C1189   1.354       .  A
C1182      C1190   1.386       .  A
C1182      C1198   1.418       .  A
C1183      C1199   1.420       .  A
C1183      C1191   1.388       .  A
C1184      C1192   1.388       .  A
C1184      C1201   1.416       .  A
C1185      C1200   1.413       .  A
C1185      C1193   1.386       .  A
C1186      C1198   1.419       .  A
C1186      C1194   1.386       .  A
C1187      C1201   1.417       .  A
C1187      C1195   1.386       .  A
C1188      C1196   1.386       .  A
C1188      C1199   1.417       .  A
C1189      C1197   1.386       .  A
C1189      C1200   1.418       .  A
C1190      C1191   1.374       .  A
C1190      H1202   1.082       .  S
C1191      H1203   1.082       .  S
C1192      C1193   1.372       .  A
C1192      H1204   1.082       .  S
C1193      H1205   1.082       .  S
C1194      C1195   1.377       .  A
C1194      H1206   1.082       .  S
C1195      H1207   1.083       .  S
C1196      C1197   1.377       .  A
C1196      H1208   1.082       .  S
C1197      H1209   1.082       .  S
C1198      C3079   1.498       .  S
C1199      C3191   1.492       .  S
C1200      C3496   1.490       .  S
C1201      C3748   1.486       .  S
O1212      C1228   1.276       .  A
O1212     Zn1218   2.011       .  S
C1213      O1229   1.275       .  A
C1213      O1226   1.277       .  A
C1213      C3006   1.493       .  S
O1214      C1227   1.278       .  A
O1214     Cd1221   2.109       .  S
O1215      C1233   1.267       .  A
O1215     Cd1224   2.020       .  S
O1216      C1230   1.269       .  A
O1216     Cd1220   2.033       .  S
O1217      C1228   1.270       .  A
O1217     Cd1220   2.047       .  S
Zn1218     O1229   2.015       .  S
Zn1218     O1231   1.962       .  S
Zn1218     O1223   1.908       .  S
O1219      C1230   1.280       .  A
O1219     Cd1224   2.080       .  S
Cd1220     O1222   2.024       .  S
Cd1220     O1223   1.981       .  S
Cd1221     O1225   2.109       .  S
Cd1221     O1234   2.109       .  S
Cd1221     O1223   2.029       .  S
O1222      C1232   1.267       .  A
O1223     Cd1224   1.976       .  S
Cd1224     O1226   2.085       .  S
O1225      C1232   1.281       .  A
C1227      O1231   1.267       .  A
C1227      C2978   1.468       .  S
C1228      C2992   1.481       .  S
C1230      C3023   1.484       .  S
C1232      C3219   1.474       .  S
C1233      O1234   1.279       .  A
C1233      C4437   1.466       .  S
O1235      C1251   1.270       .  A
O1235     Zn1241   1.996       .  S
C1236      O1252   1.274       .  A
C1236      O1249   1.275       .  A
C1236      C2953   1.481       .  S
O1237      C1250   1.279   1_655  A
O1237     Cd1244   2.121       .  S
O1238      C1256   1.268       .  A
O1238     Cd1247   2.022   1_565  S
O1239      C1253   1.277       .  A
O1239     Cd1243   2.067       .  S
O1240      C1251   1.274       .  A
O1240     Cd1243   2.057   1_455  S
Zn1241     O1252   2.012   1_545  S
Zn1241     O1254   1.944   1_545  S
Zn1241     O1246   1.921   1_455  S
O1242      C1253   1.271       .  A
O1242     Cd1247   2.061       .  S
Cd1243     O1245   2.023       .  S
Cd1243     O1246   1.957       .  S
Cd1244     O1248   2.113   1_565  S
Cd1244     O1257   2.130       .  S
Cd1244     O1246   2.034   1_565  S
O1245      C1255   1.269       .  A
O1246     Cd1247   1.970       .  S
Cd1247     O1249   2.052   1_645  S
O1248      C1255   1.279       .  A
C1250      O1254   1.266       .  A
C1250      C3527   1.476       .  S
C1251      C2925   1.481       .  S
C1253      C2939   1.484       .  S
C1255      C2967   1.470       .  S
C1256      O1257   1.283       .  A
C1256      C4465   1.470       .  S
C1258      C2894   1.489       .  S
C1258      N1259   1.363       .  A
C1258      N1263   1.360       .  A
N1259      C1260   1.361       .  A
C1260      C2908   1.484       .  S
C1260      N1261   1.361       .  A
N1261      C1262   1.359       .  A
C1262      C2883   1.481       .  S
C1262      N1263   1.355       .  A
C1264      C2869   1.488       .  S
C1264      N1265   1.362       .  A
C1264      N1269   1.360       .  A
N1265      C1266   1.361       .  A
C1266      C2852   1.500       .  S
C1266      N1267   1.355       .  A
N1267      C1268   1.364       .  A
C1268      C2838   1.480       .  S
C1268      N1269   1.361       .  A
C1270      C2824   1.491       .  S
C1270      N1271   1.365       .  A
C1270      N1275   1.363       .  A
N1271      C1272   1.366       .  A
C1272      C2799   1.505       .  S
C1272      N1273   1.361       .  A
N1273      C1274   1.362       .  A
C1274      C2810   1.499       .  S
C1274      N1275   1.353       .  A
N1276      C1281   1.354       .  A
N1276      C1280   1.356       .  A
N1276      H1308   1.036       .  S
N1277      C1284   1.348       .  A
N1277      C1285   1.347       .  A
N1278      C1283   1.350       .  A
N1278      C1282   1.346       .  A
N1278      H1309   1.036       .  S
N1279      C1286   1.349       .  A
N1279      C1287   1.352       .  A
C1280      C1288   1.386       .  A
C1280      C1296   1.419       .  A
C1281      C1297   1.419       .  A
C1281      C1289   1.387       .  A
C1282      C1290   1.387       .  A
C1282      C1299   1.405       .  A
C1283      C1298   1.407       .  A
C1283      C1291   1.386       .  A
C1284      C1296   1.408       .  A
C1284      C1292   1.387       .  A
C1285      C1299   1.408       .  A
C1285      C1293   1.387       .  A
C1286      C1294   1.387       .  A
C1286      C1297   1.413       .  A
C1287      C1295   1.385       .  A
C1287      C1298   1.412       .  A
C1288      C1289   1.375       .  A
C1288      H1300   1.082       .  S
C1289      H1301   1.082       .  S
C1290      C1291   1.372       .  A
C1290      H1302   1.082       .  S
C1291      H1303   1.082       .  S
C1292      C1293   1.374       .  A
C1292      H1304   1.083       .  S
C1293      H1305   1.083       .  S
C1294      C1295   1.376       .  A
C1294      H1306   1.082       .  S
C1295      H1307   1.082       .  S
C1296      C2841   1.486       .  S
C1297      C2813   1.485       .  S
C1298      C4745   1.481       .  S
C1299      C3485   1.467       .  S
N1310      C1315   1.353       .  A
N1310      C1314   1.352       .  A
N1310      H1342   1.035       .  S
N1311      C1318   1.348       .  A
N1311      C1319   1.348       .  A
N1312      C1317   1.346       .  A
N1312      C1316   1.345       .  A
N1312      H1343   1.036       .  S
N1313      C1320   1.348       .  A
N1313      C1321   1.349       .  A
C1314      C1322   1.386       .  A
C1314      C1330   1.413       .  A
C1315      C1331   1.418       .  A
C1315      C1323   1.388       .  A
C1316      C1324   1.387       .  A
C1316      C1333   1.401       .  A
C1317      C1332   1.403       .  A
C1317      C1325   1.388       .  A
C1318      C1330   1.409       .  A
C1318      C1326   1.388       .  A
C1319      C1333   1.405       .  A
C1319      C1327   1.385       .  A
C1320      C1328   1.387       .  A
C1320      C1331   1.411       .  A
C1321      C1329   1.385       .  A
C1321      C1332   1.409       .  A
C1322      C1323   1.376       .  A
C1322      H1334   1.082       .  S
C1323      H1335   1.082       .  S
C1324      C1325   1.368       .  A
C1324      H1336   1.082       .  S
C1325      H1337   1.082       .  S
C1326      C1327   1.373       .  A
C1326      H1338   1.082       .  S
C1327      H1339   1.083       .  S
C1328      C1329   1.375       .  A
C1328      H1340   1.082       .  S
C1329      H1341   1.082       .  S
C1330      C2796   1.478       .  S
C1331      C2880   1.485       .  S
C1332      C3961   1.471       .  S
C1333      C4224   1.465       .  S
C1344      C2768   1.505       .  S
C1344      N1345   1.359       .  A
C1344      N1349   1.355       .  A
N1345      C1346   1.363       .  A
C1346      C2754   1.503       .  S
C1346      N1347   1.363       .  A
N1347      C1348   1.365       .  A
C1348      C2782   1.490       .  S
C1348      N1349   1.366       .  A
N1350      C1355   1.355       .  A
N1350      C1354   1.354       .  A
N1350      H1382   1.029       .  S
N1351      C1358   1.352       .  A
N1351      C1359   1.353       .  A
N1352      C1357   1.353       .  A
N1352      C1356   1.355       .  A
N1352      H1383   1.035       .  S
N1353      C1360   1.351       .  A
N1353      C1361   1.350       .  A
C1354      C1362   1.388       .  A
C1354      C1370   1.423       .  A
C1355      C1371   1.423       .  A
C1355      C1363   1.388       .  A
C1356      C1364   1.386       .  A
C1356      C1373   1.414       .  A
C1357      C1372   1.417       .  A
C1357      C1365   1.389       .  A
C1358      C1370   1.422       .  A
C1358      C1366   1.389       .  A
C1359      C1373   1.417       .  A
C1359      C1367   1.385       .  A
C1360      C1368   1.386       .  A
C1360      C1371   1.418       .  A
C1361      C1369   1.387       .  A
C1361      C1372   1.417       .  A
C1362      C1363   1.374       .  A
C1362      H1374   1.082       .  S
C1363      H1375   1.082       .  S
C1364      C1365   1.369       .  A
C1364      H1376   1.082       .  S
C1365      H1377   1.082       .  S
C1366      C1367   1.374       .  A
C1366      H1378   1.082       .  S
C1367      H1379   1.082       .  S
C1368      C1369   1.376       .  A
C1368      H1380   1.082       .  S
C1369      H1381   1.082       .  S
C1370      C2827   1.487       .  S
C1371      C2757   1.490       .  S
C1372      C2995   1.483       .  S
C1373      C4871   1.489       .  S
N1384      C1389   1.356       .  A
N1384      C1388   1.356       .  A
N1384      H1416   1.037       .  S
N1385      C1392   1.350       .  A
N1385      C1393   1.349       .  A
N1386      C1391   1.350       .  A
N1386      C1390   1.347       .  A
N1386      H1417   1.037       .  S
N1387      C1394   1.348       .  A
N1387      C1395   1.350       .  A
C1388      C1396   1.386       .  A
C1388      C1404   1.419       .  A
C1389      C1405   1.423       .  A
C1389      C1397   1.388       .  A
C1390      C1398   1.389       .  A
C1390      C1407   1.407       .  A
C1391      C1406   1.405       .  A
C1391      C1399   1.386       .  A
C1392      C1404   1.413       .  A
C1392      C1400   1.387       .  A
C1393      C1407   1.409       .  A
C1393      C1401   1.386       .  A
C1394      C1402   1.387       .  A
C1394      C1405   1.411       .  A
C1395      C1403   1.384       .  A
C1395      C1406   1.408       .  A
C1396      C1397   1.377       .  A
C1396      H1408   1.082       .  S
C1397      H1409   1.082       .  S
C1398      C1399   1.368       .  A
C1398      H1410   1.082       .  S
C1399      H1411   1.082       .  S
C1400      C1401   1.375       .  A
C1400      H1412   1.082       .  S
C1401      H1413   1.083       .  S
C1402      C1403   1.376       .  A
C1402      H1414   1.082       .  S
C1403      H1415   1.082       .  S
C1404      C2855   1.490       .  S
C1405      C2911   1.492       .  S
C1406      C4199   1.478       .  S
C1407      C3891   1.470       .  S
N1418      C1423   1.353       .  A
N1418      C1422   1.352       .  A
N1418      H1450   1.037       .  S
N1419      C1426   1.352       .  A
N1419      C1427   1.353       .  A
N1420      C1425   1.350       .  A
N1420      C1424   1.351       .  A
N1420      H1451   1.036       .  S
N1421      C1428   1.353       .  A
N1421      C1429   1.353       .  A
C1422      C1430   1.388       .  A
C1422      C1438   1.414       .  A
C1423      C1439   1.413       .  A
C1423      C1431   1.387       .  A
C1424      C1432   1.387       .  A
C1424      C1441   1.410       .  A
C1425      C1440   1.410       .  A
C1425      C1433   1.388       .  A
C1426      C1438   1.416       .  A
C1426      C1434   1.386       .  A
C1427      C1441   1.415       .  A
C1427      C1435   1.386       .  A
C1428      C1436   1.386       .  A
C1428      C1439   1.416       .  A
C1429      C1437   1.386       .  A
C1429      C1440   1.417       .  A
C1430      C1431   1.374       .  A
C1430      H1442   1.083       .  S
C1431      H1443   1.083       .  S
C1432      C1433   1.369       .  A
C1432      H1444   1.082       .  S
C1433      H1445   1.082       .  S
C1434      C1435   1.376       .  A
C1434      H1446   1.082       .  S
C1435      H1447   1.082       .  S
C1436      C1437   1.375       .  A
C1436      H1448   1.082       .  S
C1437      H1449   1.082       .  S
C1438      C2866   1.487       .  S
C1439      C2785   1.487       .  S
C1440      C2740   1.483       .  S
C1441      C2936   1.482       .  S
N1452      C1457   1.357       .  A
N1452      C1456   1.350       .  A
N1452      H1484   1.038       .  S
N1453      C1460   1.345       .  A
N1453      C1461   1.351       .  A
N1454      C1459   1.350       .  A
N1454      C1458   1.354       .  A
N1454      H1485   1.036       .  S
N1455      C1462   1.353       .  A
N1455      C1463   1.350       .  A
C1456      C1464   1.389       .  A
C1456      C1472   1.416       .  A
C1457      C1473   1.416       .  A
C1457      C1465   1.386       .  A
C1458      C1466   1.385       .  A
C1458      C1475   1.412       .  A
C1459      C1474   1.414       .  A
C1459      C1467   1.388       .  A
C1460      C1472   1.408       .  A
C1460      C1468   1.388       .  A
C1461      C1475   1.409       .  A
C1461      C1469   1.385       .  A
C1462      C1470   1.384       .  A
C1462      C1473   1.413       .  A
C1463      C1471   1.387       .  A
C1463      C1474   1.415       .  A
C1464      C1465   1.375       .  A
C1464      H1476   1.083       .  S
C1465      H1477   1.082       .  S
C1466      C1467   1.372       .  A
C1466      H1478   1.082       .  S
C1467      H1479   1.082       .  S
C1468      C1469   1.374       .  A
C1468      H1480   1.083       .  S
C1469      H1481   1.082       .  S
C1470      C1471   1.375       .  A
C1470      H1482   1.082       .  S
C1471      H1483   1.082       .  S
C1472      C2897   1.469       .  S
C1473      C2771   1.495       .  S
C1474      C3415   1.480       .  S
C1475      C3737   1.486       .  S
C1486      C2712   1.494   1_455  S
C1486      N1487   1.364       .  A
C1486      N1491   1.363       .  A
N1487      C1488   1.365       .  A
C1488      C2729   1.484       .  S
C1488      N1489   1.363       .  A
N1489      C1490   1.351       .  A
C1490      C2701   1.495       .  S
C1490      N1491   1.360       .  A
N1492      C1497   1.356       .  A
N1492      C1496   1.355       .  A
N1492      H1524   1.036       .  S
N1493      C1500   1.351       .  A
N1493      C1501   1.352       .  A
N1494      C1499   1.348       .  A
N1494      C1498   1.346       .  A
N1494      H1525   1.037       .  S
N1495      C1502   1.348       .  A
N1495      C1503   1.349       .  A
C1496      C1504   1.388       .  A
C1496      C1512   1.421       .  A
C1497      C1513   1.420       .  A
C1497      C1505   1.386       .  A
C1498      C1506   1.389       .  A
C1498      C1515   1.405       .  A
C1499      C1514   1.403       .  A
C1499      C1507   1.387       .  A
C1500      C1512   1.415       .  A
C1500      C1508   1.387       .  A
C1501      C1515   1.414       .  A
C1501      C1509   1.385       .  A
C1502      C1510   1.387       .  A
C1502      C1513   1.409       .  A
C1503      C1511   1.385       .  A
C1503      C1514   1.408       .  A
C1504      C1505   1.375       .  A
C1504      H1516   1.082       .  S
C1505      H1517   1.082       .  S
C1506      C1507   1.369       .  A
C1506      H1518   1.082       .  S
C1507      H1519   1.082       .  S
C1508      C1509   1.377       .  A
C1508      H1520   1.082       .  S
C1509      H1521   1.083       .  S
C1510      C1511   1.374       .  A
C1510      H1522   1.082       .  S
C1511      H1523   1.082       .  S
C1512      C2684   1.488       .  S
C1513      C2698   1.488       .  S
C1514      C3849   1.473       .  S
C1515      C4350   1.474       .  S
C1526      C2642   1.482       .  S
C1526      N1527   1.358       .  A
C1526      N1531   1.363       .  A
N1527      C1528   1.359       .  A
C1528      C2670   1.486       .  S
C1528      N1529   1.367       .  A
N1529      C1530   1.362       .  A
C1530      C2656   1.506       .  S
C1530      N1531   1.356       .  A
C1532      C2631   1.488       .  S
C1532      N1533   1.362       .  A
C1532      N1537   1.362       .  A
N1533      C1534   1.359       .  A
C1534      C2617   1.493       .  S
C1534      N1535   1.356       .  A
N1535      C1536   1.366       .  A
C1536      C2687   1.497       .  S
C1536      N1537   1.363       .  A
N1538      C1543   1.353       .  A
N1538      C1542   1.349       .  A
N1538      H1570   1.039       .  S
N1539      C1546   1.351       .  A
N1539      C1547   1.354       .  A
N1540      C1545   1.351       .  A
N1540      C1544   1.355       .  A
N1540      H1571   1.036       .  S
N1541      C1548   1.355       .  A
N1541      C1549   1.352       .  A
C1542      C1550   1.388       .  A
C1542      C1558   1.411       .  A
C1543      C1559   1.412       .  A
C1543      C1551   1.387       .  A
C1544      C1552   1.385       .  A
C1544      C1561   1.412       .  A
C1545      C1560   1.417       .  A
C1545      C1553   1.391       .  A
C1546      C1558   1.416       .  A
C1546      C1554   1.387       .  A
C1547      C1561   1.416       .  A
C1547      C1555   1.385       .  A
C1548      C1556   1.385       .  A
C1548      C1559   1.418       .  A
C1549      C1557   1.387       .  A
C1549      C1560   1.418       .  A
C1550      C1551   1.374       .  A
C1550      H1562   1.083       .  S
C1551      H1563   1.083       .  S
C1552      C1553   1.371       .  A
C1552      H1564   1.082       .  S
C1553      H1565   1.081       .  S
C1554      C1555   1.377       .  A
C1554      H1566   1.082       .  S
C1555      H1567   1.082       .  S
C1556      C1557   1.375       .  A
C1556      H1568   1.082       .  S
C1557      H1569   1.082       .  S
C1558      C2645   1.483       .  S
C1559      C2614   1.496       .  S
C1560      C4815   1.481       .  S
C1561      C4143   1.492       .  S
C1572      C2600   1.498       .  S
C1572      N1573   1.364       .  A
C1572      N1577   1.362       .  A
N1573      C1574   1.365       .  A
C1574      C2586   1.502       .  S
C1574      N1575   1.359       .  A
N1575      C1576   1.364       .  A
C1576      C2575   1.497   1_455  S
C1576      N1577   1.358       .  A
N1578      C1583   1.351       .  A
N1578      C1582   1.353       .  A
N1578      H1610   1.038       .  S
N1579      C1586   1.353       .  A
N1579      C1587   1.352       .  A
N1580      C1585   1.353       .  A
N1580      C1584   1.348       .  A
N1580      H1611   1.037       .  S
N1581      C1588   1.348       .  A
N1581      C1589   1.350       .  A
C1582      C1590   1.387       .  A
C1582      C1598   1.414       .  A
C1583      C1599   1.414       .  A
C1583      C1591   1.388       .  A
C1584      C1592   1.390       .  A
C1584      C1601   1.412       .  A
C1585      C1600   1.408       .  A
C1585      C1593   1.385       .  A
C1586      C1598   1.418       .  A
C1586      C1594   1.387       .  A
C1587      C1601   1.414       .  A
C1587      C1595   1.385       .  A
C1588      C1596   1.386       .  A
C1588      C1599   1.409       .  A
C1589      C1597   1.386       .  A
C1589      C1600   1.410       .  A
C1590      C1591   1.374       .  A
C1590      H1602   1.082       .  S
C1591      H1603   1.082       .  S
C1592      C1593   1.370       .  A
C1592      H1604   1.082       .  S
C1593      H1605   1.082       .  S
C1594      C1595   1.375       .  A
C1594      H1606   1.082       .  S
C1595      H1607   1.082       .  S
C1596      C1597   1.375       .  A
C1596      H1608   1.082       .  S
C1597      H1609   1.082       .  S
C1598      C2628   1.492       .  S
C1599      C2589   1.479       .  S
C1600      C2558   1.482       .  S
C1601      C4283   1.476       .  S
N1612      C1617   1.356       .  A
N1612      C1616   1.357       .  A
N1612      H1644   1.037       .  S
N1613      C1620   1.349       .  A
N1613      C1621   1.351       .  A
N1614      C1619   1.348       .  A
N1614      C1618   1.349       .  A
N1614      H1645   1.038       .  S
N1615      C1622   1.352       .  A
N1615      C1623   1.353       .  A
C1616      C1624   1.389       .  A
C1616      C1632   1.424       .  A
C1617      C1633   1.420       .  A
C1617      C1625   1.386       .  A
C1618      C1626   1.388       .  A
C1618      C1635   1.405       .  A
C1619      C1634   1.405       .  A
C1619      C1627   1.388       .  A
C1620      C1632   1.414       .  A
C1620      C1628   1.388       .  A
C1621      C1635   1.408       .  A
C1621      C1629   1.383       .  A
C1622      C1630   1.388       .  A
C1622      C1633   1.419       .  A
C1623      C1631   1.384       .  A
C1623      C1634   1.413       .  A
C1624      C1625   1.373       .  A
C1624      H1636   1.081       .  S
C1625      H1637   1.082       .  S
C1626      C1627   1.367       .  A
C1626      H1638   1.083       .  S
C1627      H1639   1.082       .  S
C1628      C1629   1.373       .  A
C1628      H1640   1.081       .  S
C1629      H1641   1.082       .  S
C1630      C1631   1.377       .  A
C1630      H1642   1.082       .  S
C1631      H1643   1.082       .  S
C1632      C2572   1.490       .  S
C1633      C2715   1.498       .  S
C1634      C3919   1.479       .  S
C1635      C3009   1.478       .  S
N1646      C1651   1.351       .  A
N1646      C1650   1.352       .  A
N1646      H1678   1.038       .  S
N1647      C1654   1.349       .  A
N1647      C1655   1.347       .  A
N1648      C1653   1.351       .  A
N1648      C1652   1.350       .  A
N1648      H1679   1.036       .  S
N1649      C1656   1.351       .  A
N1649      C1657   1.352       .  A
C1650      C1658   1.386       .  A
C1650      C1666   1.412       .  A
C1651      C1667   1.411       .  A
C1651      C1659   1.387       .  A
C1652      C1660   1.387       .  A
C1652      C1669   1.409       .  A
C1653      C1668   1.413       .  A
C1653      C1661   1.388       .  A
C1654      C1666   1.407       .  A
C1654      C1662   1.385       .  A
C1655      C1669   1.410       .  A
C1655      C1663   1.388       .  A
C1656      C1664   1.387       .  A
C1656      C1667   1.415       .  A
C1657      C1665   1.385       .  A
C1657      C1668   1.412       .  A
C1658      C1659   1.374       .  A
C1658      H1670   1.082       .  S
C1659      H1671   1.082       .  S
C1660      C1661   1.370       .  A
C1660      H1672   1.082       .  S
C1661      H1673   1.082       .  S
C1662      C1663   1.375       .  A
C1662      H1674   1.082       .  S
C1663      H1675   1.082       .  S
C1664      C1665   1.375       .  A
C1664      H1676   1.082       .  S
C1665      H1677   1.082       .  S
C1666      C2673   1.481       .  S
C1667      C2726   1.485       .  S
C1668      C2950   1.484       .  S
C1669      C3947   1.473       .  S
N1680      C1685   1.350       .  A
N1680      C1684   1.352       .  A
N1680      H1712   1.036       .  S
N1681      C1688   1.346       .  A
N1681      C1689   1.346       .  A
N1682      C1687   1.351       .  A
N1682      C1686   1.350       .  A
N1682      H1713   1.036       .  S
N1683      C1690   1.349       .  A
N1683      C1691   1.351       .  A
C1684      C1692   1.388       .  A
C1684      C1700   1.414       .  A
C1685      C1701   1.411       .  A
C1685      C1693   1.386       .  A
C1686      C1694   1.387       .  A
C1686      C1703   1.409       .  A
C1687      C1702   1.409       .  A
C1687      C1695   1.386       .  A
C1688      C1700   1.406       .  A
C1688      C1696   1.387       .  A
C1689      C1703   1.406       .  A
C1689      C1697   1.387       .  A
C1690      C1698   1.387       .  A
C1690      C1701   1.411       .  A
C1691      C1699   1.385       .  A
C1691      C1702   1.409       .  A
C1692      C1693   1.375       .  A
C1692      H1704   1.082       .  S
C1693      H1705   1.082       .  S
C1694      C1695   1.369       .  A
C1694      H1706   1.082       .  S
C1695      H1707   1.082       .  S
C1696      C1697   1.374       .  A
C1696      H1708   1.083       .  S
C1697      H1709   1.083       .  S
C1698      C1699   1.375       .  A
C1698      H1710   1.082       .  S
C1699      H1711   1.082       .  S
C1700      C2603   1.477       .  S
C1701      C2659   1.478       .  S
C1702      C4087   1.479       .  S
C1703      C4017   1.470       .  S
C1714      C2516   1.498       .  S
C1714      N1715   1.362       .  A
C1714      N1719   1.366       .  A
N1715      C1716   1.365       .  A
C1716      C2530   1.497       .  S
C1716      N1717   1.360       .  A
N1717      C1718   1.364       .  A
C1718      C2544   1.498       .  S
C1718      N1719   1.360       .  A
N1720      C1725   1.359       .  A
N1720      C1724   1.350       .  A
N1720      H1752   1.036       .  S
N1721      C1728   1.352       .  A
N1721      C1729   1.357       .  A
N1722      C1727   1.351       .  A
N1722      C1726   1.358       .  A
N1722      H1753   1.037       .  S
N1723      C1730   1.352       .  A
N1723      C1731   1.347       .  A
C1724      C1732   1.391       .  A
C1724      C1740   1.420       .  A
C1725      C1741   1.418       .  A
C1725      C1733   1.385       .  A
C1726      C1734   1.385       .  A
C1726      C1743   1.416       .  A
C1727      C1742   1.415       .  A
C1727      C1735   1.388       .  A
C1728      C1740   1.420       .  A
C1728      C1736   1.388       .  A
C1729      C1743   1.419       .  A
C1729      C1737   1.384       .  A
C1730      C1738   1.385       .  A
C1730      C1741   1.411       .  A
C1731      C1739   1.388       .  A
C1731      C1742   1.412       .  A
C1732      C1733   1.375       .  A
C1732      H1744   1.082       .  S
C1733      H1745   1.082       .  S
C1734      C1735   1.371       .  A
C1734      H1746   1.082       .  S
C1735      H1747   1.082       .  S
C1736      C1737   1.377       .  A
C1736      H1748   1.082       .  S
C1737      H1749   1.082       .  S
C1738      C1739   1.376       .  A
C1738      H1750   1.082       .  S
C1739      H1751   1.083       .  S
C1740      C2502   1.482       .  S
C1741      C2533   1.498       .  S
C1742      C4731   1.474       .  S
C1743      C4801   1.504       .  S
C1754      C2505   1.497       .  S
C1754      N1755   1.359       .  A
C1754      N1759   1.369       .  A
N1755      C1756   1.359       .  A
C1756      C2474   1.479       .  S
C1756      N1757   1.363       .  A
N1757      C1758   1.356       .  A
C1758      C2491   1.506       .  S
C1758      N1759   1.362       .  A
C1760      C2446   1.491       .  S
C1760      N1761   1.367       .  A
C1760      N1765   1.365       .  A
N1761      C1762   1.365       .  A
C1762      C2460   1.498   1_655  S
C1762      N1763   1.362       .  A
N1763      C1764   1.359       .  A
C1764      C2432   1.499       .  S
C1764      N1765   1.353       .  A
C1766      C2390   1.492       .  S
C1766      N1767   1.364       .  A
C1766      N1771   1.370       .  A
N1767      C1768   1.360       .  A
C1768      C2404   1.490       .  S
C1768      N1769   1.358       .  A
N1769      C1770   1.357       .  A
C1770      C2418   1.502   1_655  S
C1770      N1771   1.357       .  A
N1772      C1777   1.356       .  A
N1772      C1776   1.356       .  A
N1772      H1804   1.037       .  S
N1773      C1780   1.353       .  A
N1773      C1781   1.354       .  A
N1774      C1779   1.350       .  A
N1774      C1778   1.351       .  A
N1774      H1805   1.035       .  S
N1775      C1782   1.352       .  A
N1775      C1783   1.351       .  A
C1776      C1784   1.388       .  A
C1776      C1792   1.421       .  A
C1777      C1793   1.419       .  A
C1777      C1785   1.386       .  A
C1778      C1786   1.388       .  A
C1778      C1795   1.410       .  A
C1779      C1794   1.409       .  A
C1779      C1787   1.387       .  A
C1780      C1792   1.420       .  A
C1780      C1788   1.387       .  A
C1781      C1795   1.416       .  A
C1781      C1789   1.385       .  A
C1782      C1790   1.386       .  A
C1782      C1793   1.414       .  A
C1783      C1791   1.386       .  A
C1783      C1794   1.414       .  A
C1784      C1785   1.376       .  A
C1784      H1796   1.082       .  S
C1785      H1797   1.082       .  S
C1786      C1787   1.369       .  A
C1786      H1798   1.082       .  S
C1787      H1799   1.082       .  S
C1788      C1789   1.376       .  A
C1788      H1800   1.082       .  S
C1789      H1801   1.083       .  S
C1790      C1791   1.375       .  A
C1790      H1802   1.082       .  S
C1791      H1803   1.083       .  S
C1792      C2463   1.497       .  S
C1793      C2421   1.492       .  S
C1794      C4255   1.478       .  S
C1795      C4339   1.483       .  S
N1806      C1811   1.354       .  A
N1806      C1810   1.353       .  A
N1806      H1838   1.033       .  S
N1807      C1814   1.350       .  A
N1807      C1815   1.351       .  A
N1808      C1813   1.346       .  A
N1808      C1812   1.346       .  A
N1808      H1839   1.036       .  S
N1809      C1816   1.346       .  A
N1809      C1817   1.347       .  A
C1810      C1818   1.387       .  A
C1810      C1826   1.417       .  A
C1811      C1827   1.418       .  A
C1811      C1819   1.387       .  A
C1812      C1820   1.387       .  A
C1812      C1829   1.403       .  A
C1813      C1828   1.401       .  A
C1813      C1821   1.387       .  A
C1814      C1826   1.412       .  A
C1814      C1822   1.386       .  A
C1815      C1829   1.413       .  A
C1815      C1823   1.386       .  A
C1816      C1824   1.387       .  A
C1816      C1827   1.405       .  A
C1817      C1825   1.386       .  A
C1817      C1828   1.406       .  A
C1818      C1819   1.374       .  A
C1818      H1830   1.082       .  S
C1819      H1831   1.082       .  S
C1820      C1821   1.371       .  A
C1820      H1832   1.082       .  S
C1821      H1833   1.083       .  S
C1822      C1823   1.374       .  A
C1822      H1834   1.082       .  S
C1823      H1835   1.082       .  S
C1824      C1825   1.372       .  A
C1824      H1836   1.083       .  S
C1825      H1837   1.083       .  S
C1826      C2393   1.482       .  S
C1827      C2477   1.478       .  S
C1828      C2981   1.466       .  S
C1829      C2376   1.475       .  S
N1840      C1845   1.353       .  A
N1840      C1844   1.351       .  A
N1840      H1872   1.038       .  S
N1841      C1848   1.349       .  A
N1841      C1849   1.351       .  A
N1842      C1847   1.350       .  A
N1842      C1846   1.351       .  A
N1842      H1873   1.037       .  S
N1843      C1850   1.352       .  A
N1843      C1851   1.352       .  A
C1844      C1852   1.387       .  A
C1844      C1860   1.413       .  A
C1845      C1861   1.415       .  A
C1845      C1853   1.387       .  A
C1846      C1854   1.386       .  A
C1846      C1863   1.407       .  A
C1847      C1862   1.412       .  A
C1847      C1855   1.388       .  A
C1848      C1860   1.412       .  A
C1848      C1856   1.387       .  A
C1849      C1863   1.410       .  A
C1849      C1857   1.385       .  A
C1850      C1858   1.386       .  A
C1850      C1861   1.415       .  A
C1851      C1859   1.385       .  A
C1851      C1862   1.414       .  A
C1852      C1853   1.377       .  A
C1852      H1864   1.083       .  S
C1853      H1865   1.082       .  S
C1854      C1855   1.370       .  A
C1854      H1866   1.082       .  S
C1855      H1867   1.082       .  S
C1856      C1857   1.376       .  A
C1856      H1868   1.082       .  S
C1857      H1869   1.082       .  S
C1858      C1859   1.378       .  A
C1858      H1870   1.082       .  S
C1859      H1871   1.082       .  S
C1860      C2449   1.480       .  S
C1861      C2547   1.493       .  S
C1862      C3457   1.485       .  S
C1863      C4059   1.480       .  S
N1874      C1879   1.352       .  A
N1874      C1878   1.348       .  A
N1874      H1906   1.075       .  S
N1875      C1882   1.349       .  A
N1875      C1883   1.353       .  A
N1876      C1881   1.341       .  A
N1876      C1880   1.347       .  A
N1876      H1907   1.074       .  S
N1877      C1884   1.351       .  A
N1877      C1885   1.349       .  A
C1878      C1886   1.387       .  A
C1878      C1894   1.419       .  A
C1879      C1895   1.419       .  A
C1879      C1887   1.386       .  A
C1880      C1888   1.386       .  A
C1880      C1897   1.408       .  A
C1881      C1896   1.408       .  A
C1881      C1889   1.389       .  A
C1882      C1894   1.415       .  A
C1882      C1890   1.388       .  A
C1883      C1897   1.412       .  A
C1883      C1891   1.384       .  A
C1884      C1892   1.386       .  A
C1884      C1895   1.411       .  A
C1885      C1893   1.387       .  A
C1885      C1896   1.410       .  A
C1886      C1887   1.378       .  A
C1886      H1898   1.082       .  S
C1887      H1899   1.082       .  S
C1888      C1889   1.371       .  A
C1888      H1900   1.082       .  S
C1889      H1901   1.082       .  S
C1890      C1891   1.373       .  A
C1890      H1902   1.082       .  S
C1891      H1903   1.082       .  S
C1892      C1893   1.374       .  A
C1892      H1904   1.082       .  S
C1893      H1905   1.083       .  S
C1894      C2488   1.484       .  S
C1895      C2435   1.491       .  S
C1896      C3807   1.466       .  S
C1897      C3863   1.485       .  S
N1908      C1913   1.354       .  A
N1908      C1912   1.356       .  A
N1908      H1940   1.037       .  S
N1909      C1916   1.355       .  A
N1909      C1917   1.355       .  A
N1910      C1915   1.352       .  A
N1910      C1914   1.349       .  A
N1910      H1941   1.035       .  S
N1911      C1918   1.351       .  A
N1911      C1919   1.353       .  A
C1912      C1920   1.386       .  A
C1912      C1928   1.419       .  A
C1913      C1929   1.420       .  A
C1913      C1921   1.389       .  A
C1914      C1922   1.388       .  A
C1914      C1931   1.410       .  A
C1915      C1930   1.410       .  A
C1915      C1923   1.387       .  A
C1916      C1928   1.422       .  A
C1916      C1924   1.387       .  A
C1917      C1931   1.418       .  A
C1917      C1925   1.385       .  A
C1918      C1926   1.388       .  A
C1918      C1929   1.418       .  A
C1919      C1927   1.385       .  A
C1919      C1930   1.415       .  A
C1920      C1921   1.374       .  A
C1920      H1932   1.082       .  S
C1921      H1933   1.082       .  S
C1922      C1923   1.368       .  A
C1922      H1934   1.082       .  S
C1923      H1935   1.082       .  S
C1924      C1925   1.376       .  A
C1924      H1936   1.082       .  S
C1925      H1937   1.082       .  S
C1926      C1927   1.376       .  A
C1926      H1938   1.082       .  S
C1927      H1939   1.082       .  S
C1928      C2519   1.499       .  S
C1929      C2407   1.488       .  S
C1930      C2964   1.485       .  S
C1931      C3510   1.484       .  S
O1942      C1958   1.277       .  A
O1942     Zn1948   2.022   1_455  S
C1943      O1959   1.272       .  A
C1943      O1956   1.280       .  A
C1943      C4378   1.496       .  S
O1944      C1957   1.279       .  A
O1944     Cd1951   2.119       .  S
O1945      C1963   1.267       .  A
O1945     Cd1954   2.024       .  S
O1946      C1960   1.267       .  A
O1946     Cd1950   2.026   1_655  S
O1947      C1958   1.269       .  A
O1947     Cd1950   2.038       .  S
Zn1948     O1959   2.009       .  S
Zn1948     O1961   1.950   1_655  S
Zn1948     O1953   1.909       .  S
O1949      C1960   1.280       .  A
O1949     Cd1954   2.082       .  S
Cd1950     O1952   2.012       .  S
Cd1950     O1953   1.971   1_455  S
Cd1951     O1955   2.117       .  S
Cd1951     O1964   2.107   1_455  S
Cd1951     O1953   2.033   1_455  S
O1952      C1962   1.267       .  A
O1953     Cd1954   1.976       .  S
Cd1954     O1956   2.090       .  S
O1955      C1962   1.280       .  A
C1957      O1961   1.268       .  A
C1957      C2362   1.477       .  S
C1958      C3205   1.472       .  S
C1960      C2379   1.482       .  S
C1962      C2561   1.466       .  S
C1963      O1964   1.281       .  A
C1963      C2743   1.468       .  S
C1965      C2334   1.500   1_554  S
C1965      N1966   1.358       .  A
C1965      N1970   1.358       .  A
N1966      C1967   1.358   1_455  A
C1967      C2351   1.482       .  S
C1967      N1968   1.357   1_655  A
N1968      C1969   1.361       .  A
C1969      C2320   1.485       .  S
C1969      N1970   1.368       .  A
N1971      C1976   1.353       .  A
N1971      C1975   1.354       .  A
N1971      H2003   1.037       .  S
N1972      C1979   1.348       .  A
N1972      C1980   1.348       .  A
N1973      C1978   1.351       .  A
N1973      C1977   1.347       .  A
N1973      H2004   1.036       .  S
N1974      C1981   1.349       .  A
N1974      C1982   1.352       .  A
C1975      C1983   1.386       .  A
C1975      C1991   1.416       .  A
C1976      C1992   1.416       .  A
C1976      C1984   1.388       .  A
C1977      C1985   1.388       .  A
C1977      C1994   1.407       .  A
C1978      C1993   1.408       .  A
C1978      C1986   1.387       .  A
C1979      C1991   1.407       .  A
C1979      C1987   1.387       .  A
C1980      C1994   1.407       .  A
C1980      C1988   1.386       .  A
C1981      C1989   1.388       .  A
C1981      C1992   1.416       .  A
C1982      C1990   1.384       .  A
C1982      C1993   1.411       .  A
C1983      C1984   1.375       .  A
C1983      H1995   1.082       .  S
C1984      H1996   1.082       .  S
C1985      C1986   1.369       .  A
C1985      H1997   1.082       .  S
C1986      H1998   1.082       .  S
C1987      C1988   1.375       .  A
C1987      H1999   1.082       .  S
C1988      H2000   1.083       .  S
C1989      C1990   1.375       .  A
C1989      H2001   1.082       .  S
C1990      H2002   1.082       .  S
C1991      C2323   1.481       .  S
C1992      C2306   1.484       .  S
C1993      C4297   1.481       .  S
C1994      C4003   1.468       .  S
C2005      C2267   1.504       .  S
C2005      N2006   1.363       .  A
C2005      N2010   1.365       .  A
N2006      C2007   1.361       .  A
C2007      C2278   1.510   1_455  S
C2007      N2008   1.362       .  A
N2008      C2009   1.368       .  A
C2009      C2292   1.497       .  S
C2009      N2010   1.365       .  A
C2011      C2309   1.477       .  S
C2011      N2012   1.362       .  A
C2011      N2016   1.359       .  A
N2012      C2013   1.355       .  A
C2013      C2236   1.500       .  S
C2013      N2014   1.363       .  A
N2014      C2015   1.363       .  A
C2015      C2250   1.490       .  S
C2015      N2016   1.359       .  A
N2017      C2022   1.356       .  A
N2017      C2021   1.353       .  A
N2017      H2049   1.036       .  S
N2018      C2025   1.347       .  A
N2018      C2026   1.351       .  A
N2019      C2024   1.346       .  A
N2019      C2023   1.349       .  A
N2019      H2050   1.037       .  S
N2020      C2027   1.350       .  A
N2020      C2028   1.350       .  A
C2021      C2029   1.389       .  A
C2021      C2037   1.419       .  A
C2022      C2038   1.418       .  A
C2022      C2030   1.386       .  A
C2023      C2031   1.387       .  A
C2023      C2040   1.405       .  A
C2024      C2039   1.406       .  A
C2024      C2032   1.388       .  A
C2025      C2037   1.410       .  A
C2025      C2033   1.388       .  A
C2026      C2040   1.409       .  A
C2026      C2034   1.384       .  A
C2027      C2035   1.386       .  A
C2027      C2038   1.412       .  A
C2028      C2036   1.385       .  A
C2028      C2039   1.411       .  A
C2029      C2030   1.374       .  A
C2029      H2041   1.082       .  S
C2030      H2042   1.082       .  S
C2031      C2032   1.370       .  A
C2031      H2043   1.082       .  S
C2032      H2044   1.082       .  S
C2033      C2034   1.376       .  A
C2033      H2045   1.082       .  S
C2034      H2046   1.082       .  S
C2035      C2036   1.376       .  A
C2035      H2047   1.082       .  S
C2036      H2048   1.082       .  S
C2037      C2264   1.478       .  S
C2038      C2239   1.490       .  S
C2039      C4213   1.473       .  S
C2040      C2922   1.478       .  S
C2051      C2197   1.511       .  S
C2051      N2052   1.360       .  A
C2051      N2056   1.366       .  A
N2052      C2053   1.368       .  A
C2053      C2222   1.494   1_554  S
C2053      N2054   1.361       .  A
N2054      C2055   1.359       .  A
C2055      C2211   1.494   1_545  S
C2055      N2056   1.366       .  A
N2057      C2062   1.357       .  A
N2057      C2061   1.359       .  A
N2057      H2089   1.036       .  S
N2058      C2065   1.355       .  A
N2058      C2066   1.355       .  A
N2059      C2064   1.349       .  A
N2059      C2063   1.348       .  A
N2059      H2090   1.039       .  S
N2060      C2067   1.349       .  A
N2060      C2068   1.350       .  A
C2061      C2069   1.387       .  A
C2061      C2077   1.426       .  A
C2062      C2078   1.424       .  A
C2062      C2070   1.386       .  A
C2063      C2071   1.388       .  A
C2063      C2080   1.405       .  A
C2064      C2079   1.403       .  A
C2064      C2072   1.387       .  A
C2065      C2077   1.422       .  A
C2065      C2073   1.386       .  A
C2066      C2080   1.422       .  A
C2066      C2074   1.386       .  A
C2067      C2075   1.388       .  A
C2067      C2078   1.413       .  A
C2068      C2076   1.384       .  A
C2068      C2079   1.407       .  A
C2069      C2070   1.377       .  A
C2069      H2081   1.082       .  S
C2070      H2082   1.082       .  S
C2071      C2072   1.369       .  A
C2071      H2083   1.082       .  S
C2072      H2084   1.082       .  S
C2073      C2074   1.380       .  A
C2073      H2085   1.082       .  S
C2074      H2086   1.082       .  S
C2075      C2076   1.376       .  A
C2075      H2087   1.082       .  S
C2076      H2088   1.082       .  S
C2077      C2194   1.506       .  S
C2078      C2253   1.492       .  S
C2079      C4717   1.476       .  S
C2080      C3720   1.487       .  S
N2091      C2096   1.353       .  A
N2091      C2095   1.356       .  A
N2091      H2123   1.036       .  S
N2092      C2099   1.350       .  A
N2092      C2100   1.348       .  A
N2093      C2098   1.353       .  A
N2093      C2097   1.350       .  A
N2093      H2124   1.038       .  S
N2094      C2101   1.352       .  A
N2094      C2102   1.353       .  A
C2095      C2103   1.386       .  A
C2095      C2111   1.417       .  A
C2096      C2112   1.419       .  A
C2096      C2104   1.388       .  A
C2097      C2105   1.387       .  A
C2097      C2114   1.409       .  A
C2098      C2113   1.411       .  A
C2098      C2106   1.387       .  A
C2099      C2111   1.410       .  A
C2099      C2107   1.386       .  A
C2100      C2114   1.410       .  A
C2100      C2108   1.387       .  A
C2101      C2109   1.387       .  A
C2101      C2112   1.417       .  A
C2102      C2110   1.385       .  A
C2102      C2113   1.415       .  A
C2103      C2104   1.376       .  A
C2103      H2115   1.082       .  S
C2104      H2116   1.082       .  S
C2105      C2106   1.371       .  A
C2105      H2117   1.082       .  S
C2106      H2118   1.082       .  S
C2107      C2108   1.373       .  A
C2107      H2119   1.082       .  S
C2108      H2120   1.083       .  S
C2109      C2110   1.376       .  A
C2109      H2121   1.082       .  S
C2110      H2122   1.083       .  S
C2111      C2225   1.488       .  S
C2112      C2337   1.488       .  S
C2113      C2365   1.488       .  S
C2114      C3933   1.474       .  S
N2125      C2130   1.357       .  A
N2125      C2129   1.354       .  A
N2125      H2157   1.037       .  S
N2126      C2133   1.351       .  A
N2126      C2134   1.353       .  A
N2127      C2132   1.349       .  A
N2127      C2131   1.353       .  A
N2127      H2158   1.037       .  S
N2128      C2135   1.356       .  A
N2128      C2136   1.353       .  A
C2129      C2137   1.388       .  A
C2129      C2145   1.420       .  A
C2130      C2146   1.419       .  A
C2130      C2138   1.386       .  A
C2131      C2139   1.386       .  A
C2131      C2148   1.410       .  A
C2132      C2147   1.411       .  A
C2132      C2140   1.389       .  A
C2133      C2145   1.416       .  A
C2133      C2141   1.387       .  A
C2134      C2148   1.414       .  A
C2134      C2142   1.385       .  A
C2135      C2143   1.387       .  A
C2135      C2146   1.422       .  A
C2136      C2144   1.386       .  A
C2136      C2147   1.418       .  A
C2137      C2138   1.377       .  A
C2137      H2149   1.082       .  S
C2138      H2150   1.082       .  S
C2139      C2140   1.369       .  A
C2139      H2151   1.082       .  S
C2140      H2152   1.082       .  S
C2141      C2142   1.378       .  A
C2141      H2153   1.082       .  S
C2142      H2154   1.082       .  S
C2143      C2144   1.377       .  A
C2143      H2155   1.082       .  S
C2144      H2156   1.083       .  S
C2145      C2295   1.490       .  S
C2146      C2208   1.505       .  S
C2147      C4073   1.480       .  S
C2148      C3790   1.488       .  S
N2159      C2164   1.351       .  A
N2159      C2163   1.351       .  A
N2159      H2191   1.039       .  S
N2160      C2167   1.351       .  A
N2160      C2168   1.350       .  A
N2161      C2166   1.349       .  A
N2161      C2165   1.350       .  A
N2161      H2192   1.038       .  S
N2162      C2169   1.353       .  A
N2162      C2170   1.352       .  A
C2163      C2171   1.388       .  A
C2163      C2179   1.412       .  A
C2164      C2180   1.410       .  A
C2164      C2172   1.386       .  A
C2165      C2173   1.387       .  A
C2165      C2182   1.408       .  A
C2166      C2181   1.407       .  A
C2166      C2174   1.387       .  A
C2167      C2179   1.413       .  A
C2167      C2175   1.386       .  A
C2168      C2182   1.412       .  A
C2168      C2176   1.386       .  A
C2169      C2177   1.385       .  A
C2169      C2180   1.413       .  A
C2170      C2178   1.387       .  A
C2170      C2181   1.416       .  A
C2171      C2172   1.375       .  A
C2171      H2183   1.082       .  S
C2172      H2184   1.082       .  S
C2173      C2174   1.374       .  A
C2173      H2185   1.082       .  S
C2174      H2186   1.082       .  S
C2175      C2176   1.374       .  A
C2175      H2187   1.082       .  S
C2176      H2188   1.082       .  S
C2177      C2178   1.374       .  A
C2177      H2189   1.082       .  S
C2178      H2190   1.082       .  S
C2179      C2348   1.483       .  S
C2180      C2281   1.487       .  S
C2181      C3471   1.482       .  S
C2182      C3401   1.480       .  S
C2193      C2194   1.402       .  A
C2193      C2198   1.409       .  A
C2193      H2200   1.084       .  S
C2194      C2195   1.412       .  A
C2195      C2196   1.407       .  A
C2195      N2202   1.427       .  S
C2196      C2197   1.409       .  A
C2196      H2201   1.083       .  S
C2197      C2198   1.424       .  A
C2198      N2199   1.428       .  S
N2199      O2203   1.262       .  A
N2199      O2204   1.262       .  A
N2202      O2206   1.262       .  A
N2202      O2205   1.262       .  A
C2207      C2208   1.403       .  A
C2207      C2212   1.406       .  A
C2207      H2214   1.084       .  S
C2208      C2209   1.415       .  A
C2209      C2210   1.403       .  A
C2209      N2216   1.428       .  S
C2210      C2211   1.402       .  A
C2210      H2215   1.084   1_565  S
C2211      C2212   1.418       .  A
C2212      N2213   1.427       .  S
N2213      O2217   1.262       .  A
N2213      O2218   1.260   1_554  A
N2216      O2220   1.262       .  A
N2216      O2219   1.262       .  A
C2221      C2222   1.406       .  A
C2221      C2226   1.399       .  A
C2221      H2228   1.083       .  S
C2222      C2223   1.422       .  A
C2223      C2224   1.400       .  A
C2223      N2230   1.426       .  S
C2224      C2225   1.396       .  A
C2224      H2229   1.084       .  S
C2225      C2226   1.409       .  A
C2226      N2227   1.427       .  S
N2227      O2231   1.262       .  A
N2227      O2232   1.262       .  A
N2230      O2234   1.261       .  A
N2230      O2233   1.262   1_556  A
C2235      C2236   1.407       .  A
C2235      C2240   1.401       .  A
C2235      H2242   1.083       .  S
C2236      C2237   1.424       .  A
C2237      C2238   1.402       .  A
C2237      N2244   1.428       .  S
C2238      C2239   1.397       .  A
C2238      H2243   1.084       .  S
C2239      C2240   1.408       .  A
C2240      N2241   1.427       .  S
N2241      O2245   1.262       .  A
N2241      O2246   1.262       .  A
N2244      O2248   1.262       .  A
N2244      O2247   1.262       .  A
C2249      C2250   1.405       .  A
C2249      C2254   1.401       .  A
C2249      H2256   1.084       .  S
C2250      C2251   1.418       .  A
C2251      C2252   1.399       .  A
C2251      N2258   1.427       .  S
C2252      C2253   1.398       .  A
C2252      H2257   1.084       .  S
C2253      C2254   1.412       .  A
C2254      N2255   1.428       .  S
N2255      O2259   1.262       .  A
N2255      O2260   1.262       .  A
N2258      O2262   1.262       .  A
N2258      O2261   1.261       .  A
C2263      C2264   1.388       .  A
C2263      C2268   1.395       .  A
C2263      H2270   1.085       .  S
C2264      C2265   1.399       .  A
C2265      C2266   1.405       .  A
C2265      N2272   1.428       .  S
C2266      C2267   1.418       .  A
C2266      H2271   1.083       .  S
C2267      C2268   1.423       .  A
C2268      N2269   1.421       .  S
N2269      O2273   1.261       .  A
N2269      O2274   1.262       .  A
N2272      O2276   1.262       .  A
N2272      O2275   1.262       .  A
C2277      C2278   1.417       .  A
C2277      C2282   1.406       .  A
C2277      H2284   1.083       .  S
C2278      C2279   1.425       .  A
C2279      C2280   1.403       .  A
C2279      N2286   1.427       .  S
C2280      C2281   1.395       .  A
C2280      H2285   1.084       .  S
C2281      C2282   1.401       .  A
C2282      N2283   1.430       .  S
N2283      O2287   1.262       .  A
N2283      O2288   1.262       .  A
N2286      O2290   1.262   1_655  A
N2286      O2289   1.262       .  A
C2291      C2292   1.408   1_565  A
C2291      C2296   1.404       .  A
C2291      H2298   1.084       .  S
C2292      C2293   1.420   1_545  A
C2293      C2294   1.399       .  A
C2293      N2300   1.423   1_565  S
C2294      C2295   1.394       .  A
C2294      H2299   1.085       .  S
C2295      C2296   1.409       .  A
C2296      N2297   1.426       .  S
N2297      O2301   1.262       .  A
N2297      O2302   1.262       .  A
N2300      O2304   1.262       .  A
N2300      O2303   1.261       .  A
C2305      C2306   1.400       .  A
C2305      C2310   1.397       .  A
C2305      H2312   1.084       .  S
C2306      C2307   1.409       .  A
C2307      C2308   1.394       .  A
C2307      N2314   1.427       .  S
C2308      C2309   1.402       .  A
C2308      H2313   1.084       .  S
C2309      C2310   1.415       .  A
C2310      N2311   1.428       .  S
N2311      O2315   1.261       .  A
N2311      O2316   1.262       .  A
N2314      O2318   1.262       .  A
N2314      O2317   1.262       .  A
C2319      C2320   1.404       .  A
C2319      C2324   1.396       .  A
C2319      H2326   1.084       .  S
C2320      C2321   1.420       .  A
C2321      C2322   1.396       .  A
C2321      N2328   1.426       .  S
C2322      C2323   1.394       .  A
C2322      H2327   1.085       .  S
C2323      C2324   1.408       .  A
C2324      N2325   1.426       .  S
N2325      O2329   1.262       .  A
N2325      O2330   1.262       .  A
N2328      O2332   1.261   1_455  A
N2328      O2331   1.262       .  A
C2333      C2334   1.409       .  A
C2333      C2338   1.398       .  A
C2333      H2340   1.083       .  S
C2334      C2335   1.422       .  A
C2335      C2336   1.404       .  A
C2335      N2342   1.428       .  S
C2336      C2337   1.399       .  A
C2336      H2341   1.084       .  S
C2337      C2338   1.406       .  A
C2338      N2339   1.427       .  S
N2339      O2343   1.262       .  A
N2339      O2344   1.262       .  A
N2342      O2346   1.262       .  A
N2342      O2345   1.262       .  A
C2347      C2348   1.398       .  A
C2347      C2352   1.398       .  A
C2347      H2354   1.084       .  S
C2348      C2349   1.409       .  A
C2349      C2350   1.396       .  A
C2349      N2356   1.428       .  S
C2350      C2351   1.405       .  A
C2350      H2355   1.084       .  S
C2351      C2352   1.415       .  A
C2352      N2353   1.426       .  S
N2353      O2357   1.260       .  A
N2353      O2358   1.262       .  A
N2356      O2360   1.262       .  A
N2356      O2359   1.262       .  A
C2361      C2362   1.405       .  A
C2361      C2366   1.393       .  A
C2361      H2368   1.085       .  S
C2362      C2363   1.412       .  A
C2363      C2364   1.404       .  A
C2363      N2370   1.427       .  S
C2364      C2365   1.404       .  A
C2364      H2369   1.084       .  S
C2365      C2366   1.408       .  A
C2366      N2367   1.428       .  S
N2367      O2371   1.262       .  A
N2367      O2372   1.262       .  A
N2370      O2374   1.262       .  A
N2370      O2373   1.262       .  A
C2375      C2376   1.392       .  A
C2375      C2380   1.393       .  A
C2375      H2382   1.085       .  S
C2376      C2377   1.408       .  A
C2377      C2378   1.395       .  A
C2377      N2384   1.427       .  S
C2378      C2379   1.402       .  A
C2378      H2383   1.084       .  S
C2379      C2380   1.424       .  A
C2380      N2381   1.429       .  S
N2381      O2385   1.262       .  A
N2381      O2386   1.262       .  A
N2384      O2388   1.262       .  A
N2384      O2387   1.262       .  A
C2389      C2390   1.406       .  A
C2389      C2394   1.395       .  A
C2389      H2396   1.083       .  S
C2390      C2391   1.422       .  A
C2391      C2392   1.399       .  A
C2391      N2398   1.424       .  S
C2392      C2393   1.394       .  A
C2392      H2397   1.084       .  S
C2393      C2394   1.406       .  A
C2394      N2395   1.426       .  S
N2395      O2399   1.262       .  A
N2395      O2400   1.262       .  A
N2398      O2402   1.262       .  A
N2398      O2401   1.262       .  A
C2403      C2404   1.407       .  A
C2403      C2408   1.398       .  A
C2403      H2410   1.084       .  S
C2404      C2405   1.416       .  A
C2405      C2406   1.399       .  A
C2405      N2412   1.424       .  S
C2406      C2407   1.397       .  A
C2406      H2411   1.084       .  S
C2407      C2408   1.408       .  A
C2408      N2409   1.427       .  S
N2409      O2413   1.262       .  A
N2409      O2414   1.262       .  A
N2412      O2416   1.262       .  A
N2412      O2415   1.261       .  A
C2417      C2418   1.408       .  A
C2417      C2422   1.397       .  A
C2417      H2424   1.083       .  S
C2418      C2419   1.423       .  A
C2419      C2420   1.407       .  A
C2419      N2426   1.428   1_455  S
C2420      C2421   1.401       .  A
C2420      H2425   1.084       .  S
C2421      C2422   1.407       .  A
C2422      N2423   1.427       .  S
N2423      O2427   1.262       .  A
N2423      O2428   1.262       .  A
N2426      O2430   1.262       .  A
N2426      O2429   1.262   1_655  A
C2431      C2432   1.407       .  A
C2431      C2436   1.400       .  A
C2431      H2438   1.083       .  S
C2432      C2433   1.423       .  A
C2433      C2434   1.404       .  A
C2433      N2440   1.428       .  S
C2434      C2435   1.398       .  A
C2434      H2439   1.084       .  S
C2435      C2436   1.408       .  A
C2436      N2437   1.427       .  S
N2437      O2441   1.262       .  A
N2437      O2442   1.262       .  A
N2440      O2444   1.262       .  A
N2440      O2443   1.262       .  A
C2445      C2446   1.406       .  A
C2445      C2450   1.392       .  A
C2445      H2452   1.082       .  S
C2446      C2447   1.419       .  A
C2447      C2448   1.402       .  A
C2447      N2454   1.424       .  S
C2448      C2449   1.396       .  A
C2448      H2453   1.084       .  S
C2449      C2450   1.405       .  A
C2450      N2451   1.427       .  S
N2451      O2455   1.262       .  A
N2451      O2456   1.262       .  A
N2454      O2458   1.262       .  A
N2454      O2457   1.261       .  A
C2459      C2460   1.408       .  A
C2459      C2464   1.401       .  A
C2459      H2466   1.084   1_455  S
C2460      C2461   1.417       .  A
C2461      C2462   1.403       .  A
C2461      N2468   1.423       .  S
C2462      C2463   1.399       .  A
C2462      H2467   1.084       .  S
C2463      C2464   1.410       .  A
C2464      N2465   1.427       .  S
N2465      O2469   1.262       .  A
N2465      O2470   1.262       .  A
N2468      O2472   1.260       .  A
N2468      O2471   1.262       .  A
C2473      C2474   1.403       .  A
C2473      C2478   1.394       .  A
C2473      H2480   1.084       .  S
C2474      C2475   1.417       .  A
C2475      C2476   1.395       .  A
C2475      N2482   1.424       .  S
C2476      C2477   1.393       .  A
C2476      H2481   1.085       .  S
C2477      C2478   1.408       .  A
C2478      N2479   1.427       .  S
N2479      O2483   1.262       .  A
N2479      O2484   1.262       .  A
N2482      O2486   1.261       .  A
N2482      O2485   1.262       .  A
C2487      C2488   1.392       .  A
C2487      C2492   1.400       .  A
C2487      H2494   1.084       .  S
C2488      C2489   1.402       .  A
C2489      C2490   1.408       .  A
C2489      N2496   1.430       .  S
C2490      C2491   1.415       .  A
C2490      H2495   1.083       .  S
C2491      C2492   1.426       .  A
C2492      N2493   1.427       .  S
N2493      O2497   1.262       .  A
N2493      O2498   1.262       .  A
N2496      O2500   1.262       .  A
N2496      O2499   1.262       .  A
C2501      C2502   1.392       .  A
C2501      C2506   1.400       .  A
C2501      H2508   1.085       .  S
C2502      C2503   1.405       .  A
C2503      C2504   1.396       .  A
C2503      N2510   1.426       .  S
C2504      C2505   1.406       .  A
C2504      H2509   1.083       .  S
C2505      C2506   1.426       .  A
C2506      N2507   1.424       .  S
N2507      O2511   1.262       .  A
N2507      O2512   1.261       .  A
N2510      O2514   1.262       .  A
N2510      O2513   1.262       .  A
C2515      C2516   1.405       .  A
C2515      C2520   1.400       .  A
C2515      H2522   1.084       .  S
C2516      C2517   1.421       .  A
C2517      C2518   1.406       .  A
C2517      N2524   1.428       .  S
C2518      C2519   1.402       .  A
C2518      H2523   1.084       .  S
C2519      C2520   1.411       .  A
C2520      N2521   1.428       .  S
N2521      O2525   1.262       .  A
N2521      O2526   1.262       .  A
N2524      O2528   1.262       .  A
N2524      O2527   1.262       .  A
C2529      C2530   1.405       .  A
C2529      C2534   1.402       .  A
C2529      H2536   1.084       .  S
C2530      C2531   1.421       .  A
C2531      C2532   1.406       .  A
C2531      N2538   1.428       .  S
C2532      C2533   1.401       .  A
C2532      H2537   1.084       .  S
C2533      C2534   1.411       .  A
C2534      N2535   1.427       .  S
N2535      O2539   1.262       .  A
N2535      O2540   1.262       .  A
N2538      O2542   1.262       .  A
N2538      O2541   1.262       .  A
C2543      C2544   1.405       .  A
C2543      C2548   1.398       .  A
C2543      H2550   1.083       .  S
C2544      C2545   1.422       .  A
C2545      C2546   1.407       .  A
C2545      N2552   1.428       .  S
C2546      C2547   1.401       .  A
C2546      H2551   1.084       .  S
C2547      C2548   1.408       .  A
C2548      N2549   1.427       .  S
N2549      O2553   1.262       .  A
N2549      O2554   1.262       .  A
N2552      O2556   1.262       .  A
N2552      O2555   1.262       .  A
C2557      C2558   1.400       .  A
C2557      C2562   1.400       .  A
C2557      H2564   1.084       .  S
C2558      C2559   1.407       .  A
C2559      C2560   1.397       .  A
C2559      N2566   1.428       .  S
C2560      C2561   1.402       .  A
C2560      H2565   1.084       .  S
C2561      C2562   1.409       .  A
C2562      N2563   1.427       .  S
N2563      O2567   1.262       .  A
N2563      O2568   1.262       .  A
N2566      O2570   1.262       .  A
N2566      O2569   1.262       .  A
C2571      C2572   1.398       .  A
C2571      C2576   1.400       .  A
C2571      H2578   1.085       .  S
C2572      C2573   1.409       .  A
C2573      C2574   1.398       .  A
C2573      N2580   1.429       .  S
C2574      C2575   1.407       .  A
C2574      H2579   1.081       .  S
C2575      C2576   1.423       .  A
C2576      N2577   1.428       .  S
N2577      O2581   1.262   1_655  A
N2577      O2582   1.262       .  A
N2580      O2584   1.262       .  A
N2580      O2583   1.262       .  A
C2585      C2586   1.414       .  A
C2585      C2590   1.404       .  A
C2585      H2592   1.082       .  S
C2586      C2587   1.426       .  A
C2587      C2588   1.399       .  A
C2587      N2594   1.427       .  S
C2588      C2589   1.392       .  A
C2588      H2593   1.084       .  S
C2589      C2590   1.401       .  A
C2590      N2591   1.430       .  S
N2591      O2595   1.262       .  A
N2591      O2596   1.262       .  A
N2594      O2598   1.262   1_455  A
N2594      O2597   1.262       .  A
C2599      C2600   1.415       .  A
C2599      C2604   1.402       .  A
C2599      H2606   1.082       .  S
C2600      C2601   1.422       .  A
C2601      C2602   1.398       .  A
C2601      N2608   1.427       .  S
C2602      C2603   1.393       .  A
C2602      H2607   1.084       .  S
C2603      C2604   1.399       .  A
C2604      N2605   1.430       .  S
N2605      O2609   1.262       .  A
N2605      O2610   1.262       .  A
N2608      O2612   1.262       .  A
N2608      O2611   1.262       .  A
C2613      C2614   1.400       .  A
C2613      C2618   1.403       .  A
C2613      H2620   1.084       .  S
C2614      C2615   1.414       .  A
C2615      C2616   1.402       .  A
C2615      N2622   1.428       .  S
C2616      C2617   1.405       .  A
C2616      H2621   1.084       .  S
C2617      C2618   1.418       .  A
C2618      N2619   1.427       .  S
N2619      O2623   1.262       .  A
N2619      O2624   1.262       .  A
N2622      O2626   1.262       .  A
N2622      O2625   1.262       .  A
C2627      C2628   1.397       .  A
C2627      C2632   1.399       .  A
C2627      H2634   1.084       .  S
C2628      C2629   1.413       .  A
C2629      C2630   1.401       .  A
C2629      N2636   1.428       .  S
C2630      C2631   1.405       .  A
C2630      H2635   1.084       .  S
C2631      C2632   1.415       .  A
C2632      N2633   1.424       .  S
N2633      O2637   1.262       .  A
N2633      O2638   1.261       .  A
N2636      O2640   1.262       .  A
N2636      O2639   1.262       .  A
C2641      C2642   1.402       .  A
C2641      C2646   1.392       .  A
C2641      H2648   1.083       .  S
C2642      C2643   1.418       .  A
C2643      C2644   1.401       .  A
C2643      N2650   1.426       .  S
C2644      C2645   1.398       .  A
C2644      H2649   1.084       .  S
C2645      C2646   1.409       .  A
C2646      N2647   1.427       .  S
N2647      O2651   1.261       .  A
N2647      O2652   1.262       .  A
N2650      O2654   1.260       .  A
N2650      O2653   1.262       .  A
C2655      C2656   1.416       .  A
C2655      C2660   1.407       .  A
C2655      H2662   1.083       .  S
C2656      C2657   1.427       .  A
C2657      C2658   1.397       .  A
C2657      N2664   1.427       .  S
C2658      C2659   1.389       .  A
C2658      H2663   1.084       .  S
C2659      C2660   1.401       .  A
C2660      N2661   1.431       .  S
N2661      O2665   1.262       .  A
N2661      O2666   1.262       .  A
N2664      O2668   1.262       .  A
N2664      O2667   1.262       .  A
C2669      C2670   1.405       .  A
C2669      C2674   1.398       .  A
C2669      H2676   1.084       .  S
C2670      C2671   1.420       .  A
C2671      C2672   1.397       .  A
C2671      N2678   1.427       .  S
C2672      C2673   1.395       .  A
C2672      H2677   1.085       .  S
C2673      C2674   1.407       .  A
C2674      N2675   1.426       .  S
N2675      O2679   1.262       .  A
N2675      O2680   1.262       .  A
N2678      O2682   1.260       .  A
N2678      O2681   1.262       .  A
C2683      C2684   1.396       .  A
C2683      C2688   1.401       .  A
C2683      H2690   1.084       .  S
C2684      C2685   1.406       .  A
C2685      C2686   1.397       .  A
C2685      N2692   1.426       .  S
C2686      C2687   1.407       .  A
C2686      H2691   1.082       .  S
C2687      C2688   1.421       .  A
C2688      N2689   1.424       .  S
N2689      O2693   1.262       .  A
N2689      O2694   1.262       .  A
N2692      O2696   1.262       .  A
N2692      O2695   1.262       .  A
C2697      C2698   1.398       .  A
C2697      C2702   1.403       .  A
C2697      H2704   1.084       .  S
C2698      C2699   1.408       .  A
C2699      C2700   1.397       .  A
C2699      N2706   1.428       .  S
C2700      C2701   1.405       .  A
C2700      H2705   1.083       .  S
C2701      C2702   1.424       .  A
C2702      N2703   1.428       .  S
N2703      O2707   1.262       .  A
N2703      O2708   1.262       .  A
N2706      O2710   1.262       .  A
N2706      O2709   1.262       .  A
C2711      C2712   1.406       .  A
C2711      C2716   1.400       .  A
C2711      H2718   1.084   1_655  S
C2712      C2713   1.417       .  A
C2713      C2714   1.403       .  A
C2713      N2720   1.424       .  S
C2714      C2715   1.400       .  A
C2714      H2719   1.084       .  S
C2715      C2716   1.413       .  A
C2716      N2717   1.428       .  S
N2717      O2721   1.262       .  A
N2717      O2722   1.262       .  A
N2720      O2724   1.260       .  A
N2720      O2723   1.262       .  A
C2725      C2726   1.399       .  A
C2725      C2730   1.399       .  A
C2725      H2732   1.084       .  S
C2726      C2727   1.409       .  A
C2727      C2728   1.393       .  A
C2727      N2734   1.428       .  S
C2728      C2729   1.404       .  A
C2728      H2733   1.083       .  S
C2729      C2730   1.415       .  A
C2730      N2731   1.423       .  S
N2731      O2735   1.261       .  A
N2731      O2736   1.262       .  A
N2734      O2738   1.261       .  A
N2734      O2737   1.262       .  A
C2739      C2740   1.397       .  A
C2739      C2744   1.395       .  A
C2739      H2746   1.084       .  S
C2740      C2741   1.413       .  A
C2741      C2742   1.400       .  A
C2741      N2748   1.428       .  S
C2742      C2743   1.399       .  A
C2742      H2747   1.084       .  S
C2743      C2744   1.414       .  A
C2744      N2745   1.428       .  S
N2745      O2749   1.262       .  A
N2745      O2750   1.262       .  A
N2748      O2752   1.262       .  A
N2748      O2751   1.262       .  A
C2753      C2754   1.410       .  A
C2753      C2758   1.400       .  A
C2753      H2760   1.083       .  S
C2754      C2755   1.421       .  A
C2755      C2756   1.401       .  A
C2755      N2762   1.423       .  S
C2756      C2757   1.395       .  A
C2756      H2761   1.085       .  S
C2757      C2758   1.406       .  A
C2758      N2759   1.426       .  S
N2759      O2763   1.262       .  A
N2759      O2764   1.262       .  A
N2762      O2766   1.262       .  A
N2762      O2765   1.262       .  A
C2767      C2768   1.410       .  A
C2767      C2772   1.403       .  A
C2767      H2774   1.083       .  S
C2768      C2769   1.423       .  A
C2769      C2770   1.405       .  A
C2769      N2776   1.428       .  S
C2770      C2771   1.399       .  A
C2770      H2775   1.084       .  S
C2771      C2772   1.408       .  A
C2772      N2773   1.427       .  S
N2773      O2777   1.262       .  A
N2773      O2778   1.262       .  A
N2776      O2780   1.262       .  A
N2776      O2779   1.262       .  A
C2781      C2782   1.406       .  A
C2781      C2786   1.396       .  A
C2781      H2788   1.083       .  S
C2782      C2783   1.418       .  A
C2783      C2784   1.400       .  A
C2783      N2790   1.424       .  S
C2784      C2785   1.396       .  A
C2784      H2789   1.084       .  S
C2785      C2786   1.409       .  A
C2786      N2787   1.427       .  S
N2787      O2791   1.262       .  A
N2787      O2792   1.262       .  A
N2790      O2794   1.261       .  A
N2790      O2793   1.262       .  A
C2795      C2796   1.387       .  A
C2795      C2800   1.393       .  A
C2795      H2802   1.085       .  S
C2796      C2797   1.401       .  A
C2797      C2798   1.409       .  A
C2797      N2804   1.430       .  S
C2798      C2799   1.420       .  A
C2798      H2803   1.083       .  S
C2799      C2800   1.420       .  A
C2800      N2801   1.420       .  S
N2801      O2805   1.261       .  A
N2801      O2806   1.262       .  A
N2804      O2808   1.262       .  A
N2804      O2807   1.262       .  A
C2809      C2810   1.406       .  A
C2809      C2814   1.395       .  A
C2809      H2816   1.083       .  S
C2810      C2811   1.426       .  A
C2811      C2812   1.404       .  A
C2811      N2818   1.429       .  S
C2812      C2813   1.398       .  A
C2812      H2817   1.084       .  S
C2813      C2814   1.405       .  A
C2814      N2815   1.427       .  S
N2815      O2819   1.262       .  A
N2815      O2820   1.262       .  A
N2818      O2822   1.262       .  A
N2818      O2821   1.262       .  A
C2823      C2824   1.406       .  A
C2823      C2828   1.395       .  A
C2823      H2830   1.082       .  S
C2824      C2825   1.418       .  A
C2825      C2826   1.401       .  A
C2825      N2832   1.424       .  S
C2826      C2827   1.397       .  A
C2826      H2831   1.084       .  S
C2827      C2828   1.407       .  A
C2828      N2829   1.427       .  S
N2829      O2833   1.262       .  A
N2829      O2834   1.262       .  A
N2832      O2836   1.262       .  A
N2832      O2835   1.261       .  A
C2837      C2838   1.402       .  A
C2837      C2842   1.393       .  A
C2837      H2844   1.084       .  S
C2838      C2839   1.417       .  A
C2839      C2840   1.400       .  A
C2839      N2846   1.428       .  S
C2840      C2841   1.400       .  A
C2840      H2845   1.084       .  S
C2841      C2842   1.410       .  A
C2842      N2843   1.427       .  S
N2843      O2847   1.262       .  A
N2843      O2848   1.262       .  A
N2846      O2850   1.262       .  A
N2846      O2849   1.261       .  A
C2851      C2852   1.407   1_565  A
C2851      C2856   1.398       .  A
C2851      H2858   1.083   1_565  S
C2852      C2853   1.424   1_545  A
C2853      C2854   1.405       .  A
C2853      N2860   1.428       .  S
C2854      C2855   1.399       .  A
C2854      H2859   1.084       .  S
C2855      C2856   1.406       .  A
C2856      N2857   1.427       .  S
N2857      O2861   1.262       .  A
N2857      O2862   1.262       .  A
N2860      O2864   1.262   1_565  A
N2860      O2863   1.262       .  A
C2865      C2866   1.398       .  A
C2865      C2870   1.401       .  A
C2865      H2872   1.084       .  S
C2866      C2867   1.409       .  A
C2867      C2868   1.397       .  A
C2867      N2874   1.428       .  S
C2868      C2869   1.405       .  A
C2868      H2873   1.084       .  S
C2869      C2870   1.417       .  A
C2870      N2871   1.427       .  S
N2871      O2875   1.260       .  A
N2871      O2876   1.262       .  A
N2874      O2878   1.262       .  A
N2874      O2877   1.262       .  A
C2879      C2880   1.398       .  A
C2879      C2884   1.397       .  A
C2879      H2886   1.084       .  S
C2880      C2881   1.410       .  A
C2881      C2882   1.401       .  A
C2881      N2888   1.428       .  S
C2882      C2883   1.403       .  A
C2882      H2887   1.084       .  S
C2883      C2884   1.415       .  A
C2884      N2885   1.428       .  S
N2885      O2889   1.262       .  A
N2885      O2890   1.262       .  A
N2888      O2892   1.262       .  A
N2888      O2891   1.262       .  A
C2893      C2894   1.414       .  A
C2893      C2898   1.398       .  A
C2893      H2900   1.082       .  S
C2894      C2895   1.419       .  A
C2895      C2896   1.393       .  A
C2895      N2902   1.426       .  S
C2896      C2897   1.391       .  A
C2896      H2901   1.084       .  S
C2897      C2898   1.398       .  A
C2898      N2899   1.429       .  S
N2899      O2903   1.262       .  A
N2899      O2904   1.262       .  A
N2902      O2906   1.262       .  A
N2902      O2905   1.260       .  A
C2907      C2908   1.404   1_565  A
C2907      C2912   1.402       .  A
C2907      H2914   1.084       .  S
C2908      C2909   1.414       .  A
C2909      C2910   1.398   1_545  A
C2909      N2916   1.426       .  S
C2910      C2911   1.399       .  A
C2910      H2915   1.084       .  S
C2911      C2912   1.414       .  A
C2912      N2913   1.429       .  S
N2913      O2917   1.262       .  A
N2913      O2918   1.262       .  A
N2916      O2920   1.262       .  A
N2916      O2919   1.261       .  A
C2921      C2922   1.396       .  A
C2921      C2926   1.398       .  A
C2921      H2928   1.084       .  S
C2922      C2923   1.408       .  A
C2923      C2924   1.396       .  A
C2923      N2930   1.427       .  S
C2924      C2925   1.403       .  A
C2924      H2929   1.084       .  S
C2925      C2926   1.421       .  A
C2926      N2927   1.429       .  S
N2927      O2931   1.261       .  A
N2927      O2932   1.262       .  A
N2930      O2934   1.262       .  A
N2930      O2933   1.262       .  A
C2935      C2936   1.400       .  A
C2935      C2940   1.401       .  A
C2935      H2942   1.084       .  S
C2936      C2937   1.406       .  A
C2937      C2938   1.394       .  A
C2937      N2944   1.427       .  S
C2938      C2939   1.406       .  A
C2938      H2943   1.084       .  S
C2939      C2940   1.418       .  A
C2940      N2941   1.429       .  S
N2941      O2945   1.262       .  A
N2941      O2946   1.262       .  A
N2944      O2948   1.262       .  A
N2944      O2947   1.262       .  A
C2949      C2950   1.402       .  A
C2949      C2954   1.397       .  A
C2949      H2956   1.084       .  S
C2950      C2951   1.407       .  A
C2951      C2952   1.395       .  A
C2951      N2958   1.428       .  S
C2952      C2953   1.407       .  A
C2952      H2957   1.084       .  S
C2953      C2954   1.414       .  A
C2954      N2955   1.428       .  S
N2955      O2959   1.262       .  A
N2955      O2960   1.262       .  A
N2958      O2962   1.262       .  A
N2958      O2961   1.262       .  A
C2963      C2964   1.402       .  A
C2963      C2968   1.403       .  A
C2963      H2970   1.084       .  S
C2964      C2965   1.408       .  A
C2965      C2966   1.395       .  A
C2965      N2972   1.427       .  S
C2966      C2967   1.401       .  A
C2966      H2971   1.085       .  S
C2967      C2968   1.412       .  A
C2968      N2969   1.428       .  S
N2969      O2973   1.262       .  A
N2969      O2974   1.262       .  A
N2972      O2976   1.262       .  A
N2972      O2975   1.262       .  A
C2977      C2978   1.410       .  A
C2977      C2982   1.397       .  A
C2977      H2984   1.084       .  S
C2978      C2979   1.410       .  A
C2979      C2980   1.394       .  A
C2979      N2986   1.426       .  S
C2980      C2981   1.395       .  A
C2980      H2985   1.084       .  S
C2981      C2982   1.400       .  A
C2982      N2983   1.431       .  S
N2983      O2987   1.262       .  A
N2983      O2988   1.262       .  A
N2986      O2990   1.262       .  A
N2986      O2989   1.262       .  A
C2991      C2992   1.406       .  A
C2991      C2996   1.393       .  A
C2991      H2998   1.084       .  S
C2992      C2993   1.417       .  A
C2993      C2994   1.399       .  A
C2993      N3000   1.429       .  S
C2994      C2995   1.400       .  A
C2994      H2999   1.084       .  S
C2995      C2996   1.406       .  A
C2996      N2997   1.427       .  S
N2997      O3001   1.262       .  A
N2997      O3002   1.262       .  A
N3000      O3004   1.262       .  A
N3000      O3003   1.262       .  A
C3005      C3006   1.413       .  A
C3005      C3010   1.404       .  A
C3005      H3012   1.083       .  S
C3006      C3007   1.422       .  A
C3007      C3008   1.396       .  A
C3007      N3014   1.427       .  S
C3008      C3009   1.391       .  A
C3008      H3013   1.084       .  S
C3009      C3010   1.404       .  A
C3010      N3011   1.431       .  S
N3011      O3015   1.262       .  A
N3011      O3016   1.262       .  A
N3014      O3018   1.262       .  A
N3014      O3017   1.262       .  A
C3019      C3020   1.396       .  A
C3019      C3024   1.395       .  A
C3019      H3026   1.085       .  S
C3020      C3021   1.408       .  A
C3021      C3022   1.397       .  A
C3021      N3028   1.427       .  S
C3022      C3023   1.405       .  A
C3022      H3027   1.084       .  S
C3023      C3024   1.421       .  A
C3024      N3025   1.429       .  S
N3025      O3029   1.262       .  A
N3025      O3030   1.262       .  A
N3028      O3032   1.262       .  A
N3028      O3031   1.262       .  A
C3033      C3034   1.410       .  A
C3033      C3038   1.393       .  A
C3033      H3040   1.083       .  S
C3034      C3035   1.418       .  A
C3035      C3036   1.395       .  A
C3035      N3042   1.419       .  S
C3036      C3037   1.391       .  A
C3036      H3041   1.085       .  S
C3037      C3038   1.403       .  A
C3038      N3039   1.427       .  S
N3039      O3043   1.262       .  A
N3039      O3044   1.262       .  A
N3042      O3046   1.261       .  A
N3042      O3045   1.262       .  A
C3047      C3048   1.408       .  A
C3047      C3052   1.394       .  A
C3047      H3054   1.082       .  S
C3048      C3049   1.418       .  A
C3049      C3050   1.393       .  A
C3049      N3056   1.420       .  S
C3050      C3051   1.391       .  A
C3050      H3055   1.085       .  S
C3051      C3052   1.404       .  A
C3052      N3053   1.426       .  S
N3053      O3057   1.261       .  A
N3053      O3058   1.262       .  A
N3056      O3060   1.261       .  A
N3056      O3059   1.262       .  A
C3061      C3062   1.391       .  A
C3061      C3066   1.396       .  A
C3061      H3068   1.084       .  S
C3062      C3063   1.400       .  A
C3063      C3064   1.402       .  A
C3063      N3070   1.429       .  S
C3064      C3065   1.415       .  A
C3064      H3069   1.082       .  S
C3065      C3066   1.420       .  A
C3066      N3067   1.422       .  S
N3067      O3071   1.262       .  A
N3067      O3072   1.262       .  A
N3070      O3074   1.262       .  A
N3070      O3073   1.262       .  A
C3075      C3076   1.407       .  A
C3075      C3080   1.403       .  A
C3075      H3082   1.084       .  S
C3076      C3077   1.417       .  A
C3077      C3078   1.404       .  A
C3077      N3084   1.424       .  S
C3078      C3079   1.399       .  A
C3078      H3083   1.084       .  S
C3079      C3080   1.412       .  A
C3080      N3081   1.428       .  S
N3081      O3085   1.262       .  A
N3081      O3086   1.262       .  A
N3084      O3088   1.262       .  A
N3084      O3087   1.261       .  A
C3089      C3090   1.398       .  A
C3089      C3094   1.402       .  A
C3089      H3096   1.084       .  S
C3090      C3091   1.407       .  A
C3091      C3092   1.400       .  A
C3091      N3098   1.428       .  S
C3092      C3093   1.409       .  A
C3092      H3097   1.083       .  S
C3093      C3094   1.423       .  A
C3094      N3095   1.427       .  S
N3095      O3099   1.262       .  A
N3095      O3100   1.262   1_556  A
N3098      O3102   1.262       .  A
N3098      O3101   1.262       .  A
C3103      C3104   1.405       .  A
C3103      C3108   1.399       .  A
C3103      H3110   1.083       .  S
C3104      C3105   1.419       .  A
C3105      C3106   1.404       .  A
C3105      N3112   1.428       .  S
C3106      C3107   1.401       .  A
C3106      H3111   1.084       .  S
C3107      C3108   1.411       .  A
C3108      N3109   1.427       .  S
N3109      O3113   1.262       .  A
N3109      O3114   1.262       .  A
N3112      O3116   1.262       .  A
N3112      O3115   1.262       .  A
C3117      C3118   1.406       .  A
C3117      C3122   1.400       .  A
C3117      H3124   1.083       .  S
C3118      C3119   1.423       .  A
C3119      C3120   1.404       .  A
C3119      N3126   1.428       .  S
C3120      C3121   1.399       .  A
C3120      H3125   1.084       .  S
C3121      C3122   1.409       .  A
C3122      N3123   1.427       .  S
N3123      O3127   1.262       .  A
N3123      O3128   1.262       .  A
N3126      O3130   1.262       .  A
N3126      O3129   1.262       .  A
C3131      C3132   1.407       .  A
C3131      C3136   1.398       .  A
C3131      H3138   1.082       .  S
C3132      C3133   1.424       .  A
C3133      C3134   1.405       .  A
C3133      N3140   1.428       .  S
C3134      C3135   1.400       .  A
C3134      H3139   1.084       .  S
C3135      C3136   1.408       .  A
C3136      N3137   1.427       .  S
N3137      O3141   1.262       .  A
N3137      O3142   1.262       .  A
N3140      O3144   1.262       .  A
N3140      O3143   1.262       .  A
C3145      C3146   1.409       .  A
C3145      C3150   1.398       .  A
C3145      H3152   1.083       .  S
C3146      C3147   1.419       .  A
C3147      C3148   1.399       .  A
C3147      N3154   1.427       .  S
C3148      C3149   1.397       .  A
C3148      H3153   1.084       .  S
C3149      C3150   1.407       .  A
C3150      N3151   1.428       .  S
N3151      O3155   1.262       .  A
N3151      O3156   1.262       .  A
N3154      O3158   1.262       .  A
N3154      O3157   1.262       .  A
C3159      C3160   1.397       .  A
C3159      C3164   1.399       .  A
C3159      H3166   1.084       .  S
C3160      C3161   1.408       .  A
C3161      C3162   1.394       .  A
C3161      N3168   1.426       .  S
C3162      C3163   1.404       .  A
C3162      H3167   1.084       .  S
C3163      C3164   1.418       .  A
C3164      N3165   1.425       .  S
N3165      O3169   1.261       .  A
N3165      O3170   1.262       .  A
N3168      O3172   1.262       .  A
N3168      O3171   1.262       .  A
C3173      C3174   1.407       .  A
C3173      C3178   1.400       .  A
C3173      H3180   1.084       .  S
C3174      C3175   1.419       .  A
C3175      C3176   1.401       .  A
C3175      N3182   1.425       .  S
C3176      C3177   1.397       .  A
C3176      H3181   1.084       .  S
C3177      C3178   1.409       .  A
C3178      N3179   1.427       .  S
N3179      O3183   1.262       .  A
N3179      O3184   1.262       .  A
N3182      O3186   1.262       .  A
N3182      O3185   1.260       .  A
C3187      C3188   1.408       .  A
C3187      C3192   1.400       .  A
C3187      H3194   1.083       .  S
C3188      C3189   1.426       .  A
C3189      C3190   1.405       .  A
C3189      N3196   1.428       .  S
C3190      C3191   1.399       .  A
C3190      H3195   1.084       .  S
C3191      C3192   1.407       .  A
C3192      N3193   1.427       .  S
N3193      O3197   1.262       .  A
N3193      O3198   1.262       .  A
N3196      O3200   1.262       .  A
N3196      O3199   1.262       .  A
C3201      C3202   1.402       .  A
C3201      C3206   1.397       .  A
C3201      H3208   1.084       .  S
C3202      C3203   1.409       .  A
C3203      C3204   1.394       .  A
C3203      N3210   1.428       .  S
C3204      C3205   1.402       .  A
C3204      H3209   1.084       .  S
C3205      C3206   1.413       .  A
C3206      N3207   1.428       .  S
N3207      O3211   1.262       .  A
N3207      O3212   1.262       .  A
N3210      O3214   1.262       .  A
N3210      O3213   1.262       .  A
C3215      C3216   1.398       .  A
C3215      C3220   1.396       .  A
C3215      H3222   1.084       .  S
C3216      C3217   1.416       .  A
C3217      C3218   1.401       .  A
C3217      N3224   1.428       .  S
C3218      C3219   1.399       .  A
C3218      H3223   1.084       .  S
C3219      C3220   1.415       .  A
C3220      N3221   1.429       .  S
N3221      O3225   1.262       .  A
N3221      O3226   1.262       .  A
N3224      O3228   1.262       .  A
N3224      O3227   1.262       .  A
C3229      C3230   1.406       .  A
C3229      C3234   1.398       .  A
C3229      H3236   1.083       .  S
C3230      C3231   1.422       .  A
C3231      C3232   1.404       .  A
C3231      N3238   1.428       .  S
C3232      C3233   1.400       .  A
C3232      H3237   1.084       .  S
C3233      C3234   1.407       .  A
C3234      N3235   1.427       .  S
N3235      O3239   1.262       .  A
N3235      O3240   1.262       .  A
N3238      O3242   1.262       .  A
N3238      O3241   1.262       .  A
C3243      C3244   1.414       .  A
C3243      C3248   1.408       .  A
C3243      H3250   1.083       .  S
C3244      C3245   1.424       .  A
C3245      C3246   1.397       .  A
C3245      N3252   1.427       .  S
C3246      C3247   1.392       .  A
C3246      H3251   1.084       .  S
C3247      C3248   1.404       .  A
C3248      N3249   1.429       .  S
N3249      O3253   1.262       .  A
N3249      O3254   1.262       .  A
N3252      O3256   1.262       .  A
N3252      O3255   1.262       .  A
C3257      C3258   1.407       .  A
C3257      C3262   1.400       .  A
C3257      H3264   1.084       .  S
C3258      C3259   1.419       .  A
C3259      C3260   1.402       .  A
C3259      N3266   1.427       .  S
C3260      C3261   1.399       .  A
C3260      H3265   1.084       .  S
C3261      C3262   1.409       .  A
C3262      N3263   1.428       .  S
N3263      O3267   1.262       .  A
N3263      O3268   1.262       .  A
N3266      O3270   1.262       .  A
N3266      O3269   1.262   1_554  A
C3271      C3272   1.406       .  A
C3271      C3276   1.405       .  A
C3271      H3278   1.084       .  S
C3272      C3273   1.417       .  A
C3273      C3274   1.401       .  A
C3273      N3280   1.425       .  S
C3274      C3275   1.399       .  A
C3274      H3279   1.084       .  S
C3275      C3276   1.417       .  A
C3276      N3277   1.428       .  S
N3277      O3281   1.262       .  A
N3277      O3282   1.262       .  A
N3280      O3284   1.260       .  A
N3280      O3283   1.262       .  A
C3285      C3286   1.407       .  A
C3285      C3290   1.402       .  A
C3285      H3292   1.083       .  S
C3286      C3287   1.426       .  A
C3287      C3288   1.403       .  A
C3287      N3294   1.428       .  S
C3288      C3289   1.397       .  A
C3288      H3293   1.084       .  S
C3289      C3290   1.410       .  A
C3290      N3291   1.427       .  S
N3291      O3295   1.262       .  A
N3291      O3296   1.262       .  A
N3294      O3298   1.262       .  A
N3294      O3297   1.262       .  A
C3299      C3300   1.407       .  A
C3299      C3304   1.397       .  A
C3299      H3306   1.083       .  S
C3300      C3301   1.417       .  A
C3301      C3302   1.397       .  A
C3301      N3308   1.425       .  S
C3302      C3303   1.397       .  A
C3302      H3307   1.085       .  S
C3303      C3304   1.407       .  A
C3304      N3305   1.427       .  S
N3305      O3309   1.262       .  A
N3305      O3310   1.262       .  A
N3308      O3312   1.261       .  A
N3308      O3311   1.262       .  A
C3313      C3314   1.406       .  A
C3313      C3318   1.395       .  A
C3313      H3320   1.084       .  S
C3314      C3315   1.419       .  A
C3315      C3316   1.401       .  A
C3315      N3322   1.426       .  S
C3316      C3317   1.397       .  A
C3316      H3321   1.084       .  S
C3317      C3318   1.409       .  A
C3318      N3319   1.428       .  S
N3319      O3323   1.262       .  A
N3319      O3324   1.262       .  A
N3322      O3326   1.262       .  A
N3322      O3325   1.261       .  A
C3327      C3328   1.406       .  A
C3327      C3332   1.402       .  A
C3327      H3334   1.084       .  S
C3328      C3329   1.419       .  A
C3329      C3330   1.403       .  A
C3329      N3336   1.428   1_554  S
C3330      C3331   1.401       .  A
C3330      H3335   1.084       .  S
C3331      C3332   1.412       .  A
C3332      N3333   1.428       .  S
N3333      O3337   1.262       .  A
N3333      O3338   1.262       .  A
N3336      O3340   1.262       .  A
N3336      O3339   1.262   1_556  A
C3341      C3342   1.406       .  A
C3341      C3346   1.396       .  A
C3341      H3348   1.082       .  S
C3342      C3343   1.419       .  A
C3343      C3344   1.398       .  A
C3343      N3350   1.423       .  S
C3344      C3345   1.395       .  A
C3344      H3349   1.085       .  S
C3345      C3346   1.408       .  A
C3346      N3347   1.427       .  S
N3347      O3351   1.262       .  A
N3347      O3352   1.262       .  A
N3350      O3354   1.262       .  A
N3350      O3353   1.262       .  A
C3355      C3356   1.405       .  A
C3355      C3360   1.394       .  A
C3355      H3362   1.083       .  S
C3356      C3357   1.418       .  A
C3357      C3358   1.402       .  A
C3357      N3364   1.426       .  S
C3358      C3359   1.399       .  A
C3358      H3363   1.084       .  S
C3359      C3360   1.408       .  A
C3360      N3361   1.427       .  S
N3361      O3365   1.262       .  A
N3361      O3366   1.262       .  A
N3364      O3368   1.262       .  A
N3364      O3367   1.261       .  A
C3369      C3370   1.407       .  A
C3369      C3374   1.398       .  A
C3369      H3376   1.084       .  S
C3370      C3371   1.417       .  A
C3371      C3372   1.403       .  A
C3371      N3378   1.425       .  S
C3372      C3373   1.399       .  A
C3372      H3377   1.084       .  S
C3373      C3374   1.409       .  A
C3374      N3375   1.428       .  S
N3375      O3379   1.262       .  A
N3375      O3380   1.262       .  A
N3378      O3382   1.262       .  A
N3378      O3381   1.261       .  A
C3383      C3384   1.399       .  A
C3383      C3388   1.404       .  A
C3383      H3390   1.084       .  S
C3384      C3385   1.405       .  A
C3385      C3386   1.396       .  A
C3385      N3392   1.427       .  S
C3386      C3387   1.409       .  A
C3386      H3391   1.083       .  S
C3387      C3388   1.424       .  A
C3388      N3389   1.428       .  S
N3389      O3393   1.262       .  A
N3389      O3394   1.262       .  A
N3392      O3396   1.262       .  A
N3392      O3395   1.262       .  A
C3397      C3398   1.409       .  A
C3397      C3402   1.400       .  A
C3397      H3404   1.084       .  S
C3398      C3399   1.416       .  A
C3399      C3400   1.402       .  A
C3399      N3406   1.427       .  S
C3400      C3401   1.397       .  A
C3400      H3405   1.084       .  S
C3401      C3402   1.403       .  A
C3402      N3403   1.430       .  S
N3403      O3407   1.262       .  A
N3403      O3408   1.262       .  A
N3406      O3410   1.262       .  A
N3406      O3409   1.262       .  A
C3411      C3412   1.404       .  A
C3411      C3416   1.392       .  A
C3411      H3418   1.083       .  S
C3412      C3413   1.409       .  A
C3413      C3414   1.399       .  A
C3413      N3420   1.427       .  S
C3414      C3415   1.403       .  A
C3414      H3419   1.084       .  S
C3415      C3416   1.407       .  A
C3416      N3417   1.429       .  S
N3417      O3421   1.262       .  A
N3417      O3422   1.262       .  A
N3420      O3424   1.262       .  A
N3420      O3423   1.262       .  A
C3425      C3426   1.409       .  A
C3425      C3430   1.397       .  A
C3425      H3432   1.084       .  S
C3426      C3427   1.411       .  A
C3427      C3428   1.395       .  A
C3427      N3434   1.426       .  S
C3428      C3429   1.395       .  A
C3428      H3433   1.084       .  S
C3429      C3430   1.401       .  A
C3430      N3431   1.430       .  S
N3431      O3435   1.262       .  A
N3431      O3436   1.262       .  A
N3434      O3438   1.262       .  A
N3434      O3437   1.262       .  A
C3439      C3440   1.401       .  A
C3439      C3444   1.397       .  A
C3439      H3446   1.085       .  S
C3440      C3441   1.405       .  A
C3441      C3442   1.409       .  A
C3441      N3448   1.430       .  S
C3442      C3443   1.413       .  A
C3442      H3447   1.084       .  S
C3443      C3444   1.414       .  A
C3444      N3445   1.428       .  S
N3445      O3449   1.262       .  A
N3445      O3450   1.262       .  A
N3448      O3452   1.262       .  A
N3448      O3451   1.262       .  A
C3453      C3454   1.408       .  A
C3453      C3458   1.393       .  A
C3453      H3460   1.084       .  S
C3454      C3455   1.417       .  A
C3455      C3456   1.404       .  A
C3455      N3462   1.428       .  S
C3456      C3457   1.404       .  A
C3456      H3461   1.084       .  S
C3457      C3458   1.404       .  A
C3458      N3459   1.428       .  S
N3459      O3463   1.262       .  A
N3459      O3464   1.262       .  A
N3462      O3466   1.262       .  A
N3462      O3465   1.262       .  A
C3467      C3468   1.399       .  A
C3467      C3472   1.399       .  A
C3467      H3474   1.084       .  S
C3468      C3469   1.415       .  A
C3469      C3470   1.395       .  A
C3469      N3476   1.429       .  S
C3470      C3471   1.397       .  A
C3470      H3475   1.084       .  S
C3471      C3472   1.412       .  A
C3472      N3473   1.428       .  S
N3473      O3477   1.262       .  A
N3473      O3478   1.262       .  A
N3476      O3480   1.262       .  A
N3476      O3479   1.262       .  A
C3481      C3482   1.406       .  A
C3481      C3486   1.403       .  A
C3481      H3488   1.084       .  S
C3482      C3483   1.415       .  A
C3483      C3484   1.389       .  A
C3483      N3490   1.427       .  S
C3484      C3485   1.389       .  A
C3484      H3489   1.084       .  S
C3485      C3486   1.404       .  A
C3486      N3487   1.430       .  S
N3487      O3491   1.262       .  A
N3487      O3492   1.262       .  A
N3490      O3494   1.262       .  A
N3490      O3493   1.261       .  A
C3495      C3496   1.403       .  A
C3495      C3500   1.404       .  A
C3495      H3502   1.084       .  S
C3496      C3497   1.409       .  A
C3497      C3498   1.398       .  A
C3497      N3504   1.428       .  S
C3498      C3499   1.403       .  A
C3498      H3503   1.085       .  S
C3499      C3500   1.411       .  A
C3500      N3501   1.428       .  S
N3501      O3505   1.261       .  A
N3501      O3506   1.261       .  A
N3504      O3508   1.262       .  A
N3504      O3507   1.262       .  A
C3509      C3510   1.397       .  A
C3509      C3514   1.401       .  A
C3509      H3516   1.084       .  S
C3510      C3511   1.408       .  A
C3511      C3512   1.397       .  A
C3511      N3518   1.428       .  S
C3512      C3513   1.406       .  A
C3512      H3517   1.084       .  S
C3513      C3514   1.423       .  A
C3514      N3515   1.428       .  S
N3515      O3519   1.262       .  A
N3515      O3520   1.262       .  A
N3518      O3522   1.262       .  A
N3518      O3521   1.262       .  A
C3523      C3524   1.405       .  A
C3523      C3528   1.404       .  A
C3523      H3530   1.084       .  S
C3524      C3525   1.406       .  A
C3525      C3526   1.394       .  A
C3525      N3532   1.428       .  S
C3526      C3527   1.405       .  A
C3526      H3531   1.085       .  S
C3527      C3528   1.412       .  A
C3528      N3529   1.428       .  S
N3529      O3533   1.262       .  A
N3529      O3534   1.262       .  A
N3532      O3536   1.262       .  A
N3532      O3535   1.262       .  A
C3537      C3538   1.417       .  A
C3537      C3542   1.405       .  A
C3537      H3544   1.082       .  S
C3538      C3539   1.419       .  A
C3539      C3540   1.392       .  A
C3539      N3546   1.421       .  S
C3540      C3541   1.387       .  A
C3540      H3545   1.085       .  S
C3541      C3542   1.400       .  A
C3542      N3543   1.429       .  S
N3543      O3547   1.262       .  A
N3543      O3548   1.262       .  A
N3546      O3550   1.260       .  A
N3546      O3549   1.262       .  A
C3551      C3552   1.409       .  A
C3551      C3556   1.398       .  A
C3551      H3558   1.083       .  S
C3552      C3553   1.419       .  A
C3553      C3554   1.400       .  A
C3553      N3560   1.422       .  S
C3554      C3555   1.396       .  A
C3554      H3559   1.085       .  S
C3555      C3556   1.408       .  A
C3556      N3557   1.428       .  S
N3557      O3561   1.262       .  A
N3557      O3562   1.262       .  A
N3560      O3564   1.262       .  A
N3560      O3563   1.262       .  A
C3565      C3566   1.408       .  A
C3565      C3570   1.399       .  A
C3565      H3572   1.083       .  S
C3566      C3567   1.424       .  A
C3567      C3568   1.407       .  A
C3567      N3574   1.428       .  S
C3568      C3569   1.401       .  A
C3568      H3573   1.084       .  S
C3569      C3570   1.407       .  A
C3570      N3571   1.427       .  S
N3571      O3575   1.262       .  A
N3571      O3576   1.262       .  A
N3574      O3578   1.262       .  A
N3574      O3577   1.262       .  A
C3579      C3580   1.405       .  A
C3579      C3584   1.395       .  A
C3579      H3586   1.083       .  S
C3580      C3581   1.417       .  A
C3581      C3582   1.398       .  A
C3581      N3588   1.425       .  S
C3582      C3583   1.397       .  A
C3582      H3587   1.084       .  S
C3583      C3584   1.408       .  A
C3584      N3585   1.427       .  S
N3585      O3589   1.262       .  A
N3585      O3590   1.262       .  A
N3588      O3592   1.260       .  A
N3588      O3591   1.262       .  A
C3593      C3594   1.399       .  A
C3593      C3598   1.398       .  A
C3593      H3600   1.084       .  S
C3594      C3595   1.407       .  A
C3595      C3596   1.397       .  A
C3595      N3602   1.427       .  S
C3596      C3597   1.406       .  A
C3596      H3601   1.083       .  S
C3597      C3598   1.418       .  A
C3598      N3599   1.429       .  S
N3599      O3603   1.262       .  A
N3599      O3604   1.262       .  A
N3602      O3606   1.262       .  A
N3602      O3605   1.262       .  A
C3607      C3608   1.400       .  A
C3607      C3612   1.401       .  A
C3607      H3614   1.084       .  S
C3608      C3609   1.408       .  A
C3609      C3610   1.399       .  A
C3609      N3616   1.429       .  S
C3610      C3611   1.412       .  A
C3610      H3615   1.083       .  S
C3611      C3612   1.419       .  A
C3612      N3613   1.427       .  S
N3613      O3617   1.262       .  A
N3613      O3618   1.262       .  A
N3616      O3620   1.262       .  A
N3616      O3619   1.262       .  A
C3621      C3622   1.408       .  A
C3621      C3626   1.398       .  A
C3621      H3628   1.082       .  S
C3622      C3623   1.420       .  A
C3623      C3624   1.408       .  A
C3623      N3630   1.424       .  S
C3624      C3625   1.400       .  A
C3624      H3629   1.084       .  S
C3625      C3626   1.410       .  A
C3626      N3627   1.427       .  S
N3627      O3631   1.262       .  A
N3627      O3632   1.262       .  A
N3630      O3634   1.262   1_565  A
N3630      O3633   1.261       .  A
C3635      C3636   1.409       .  A
C3635      C3640   1.407       .  A
C3635      H3642   1.083       .  S
C3636      C3637   1.425       .  A
C3637      C3638   1.408       .  A
C3637      N3644   1.427       .  S
C3638      C3639   1.400       .  A
C3638      H3643   1.084       .  S
C3639      C3640   1.412       .  A
C3640      N3641   1.428       .  S
N3641      O3645   1.262       .  A
N3641      O3646   1.262       .  A
N3644      O3648   1.262       .  A
N3644      O3647   1.262       .  A
C3649      C3650   1.411       .  A
C3649      C3654   1.404       .  A
C3649      H3656   1.083       .  S
C3650      C3651   1.422       .  A
C3651      C3652   1.407       .  A
C3651      N3658   1.422       .  S
C3652      C3653   1.398       .  A
C3652      H3657   1.084       .  S
C3653      C3654   1.408       .  A
C3654      N3655   1.426       .  S
N3655      O3659   1.261       .  A
N3655      O3660   1.262       .  A
N3658      O3662   1.261       .  A
N3658      O3661   1.262       .  A
C3663      C3664   1.395       .  A
C3663      C3668   1.403       .  A
C3663      H3670   1.084       .  S
C3664      C3665   1.405       .  A
C3665      C3666   1.398       .  A
C3665      N3672   1.427       .  S
C3666      C3667   1.411       .  A
C3666      H3671   1.083       .  S
C3667      C3668   1.419       .  A
C3668      N3669   1.421       .  S
N3669      O3673   1.261       .  A
N3669      O3674   1.262       .  A
N3672      O3676   1.262       .  A
N3672      O3675   1.262       .  A
C3677      C3678   1.406       .  A
C3677      C3682   1.396       .  A
C3677      H3684   1.082       .  S
C3678      C3679   1.416       .  A
C3679      C3680   1.398       .  A
C3679      N3686   1.424       .  S
C3680      C3681   1.397       .  A
C3680      H3685   1.085       .  S
C3681      C3682   1.408       .  A
C3682      N3683   1.427       .  S
N3683      O3687   1.262       .  A
N3683      O3688   1.262       .  A
N3686      O3690   1.262       .  A
N3686      O3689   1.261       .  A
C3691      C3692   1.405       .  A
C3691      C3696   1.404       .  A
C3691      H3698   1.084       .  S
C3692      C3693   1.421       .  A
C3693      C3694   1.404       .  A
C3693      N3700   1.427       .  S
C3694      C3695   1.398       .  A
C3694      H3699   1.084       .  S
C3695      C3696   1.413       .  A
C3696      N3697   1.428       .  S
N3697      O3701   1.262       .  A
N3697      O3702   1.262       .  A
N3700      O3704   1.262       .  A
N3700      O3703   1.262       .  A
C3705      C3706   1.396       .  A
C3705      C3710   1.403       .  A
C3705      H3712   1.084       .  S
C3706      C3707   1.407       .  A
C3707      C3708   1.402       .  A
C3707      N3714   1.426       .  S
C3708      C3709   1.409       .  A
C3708      H3713   1.083       .  S
C3709      C3710   1.422       .  A
C3710      N3711   1.424       .  S
N3711      O3715   1.260       .  A
N3711      O3716   1.262       .  A
N3714      O3718   1.262       .  A
N3714      O3717   1.262       .  A
C3719      C3720   1.391       .  A
C3719      C3724   1.393       .  A
C3719      H3726   1.085       .  S
C3720      C3721   1.417       .  A
C3721      C3722   1.403       .  A
C3721      N3728   1.428       .  S
C3722      C3723   1.402       .  A
C3722      H3727   1.084       .  S
C3723      C3724   1.417       .  A
C3724      N3725   1.423       .  S
N3725      O3729   1.262       .  A
N3725      O3730   1.259       .  A
N3728      O3732   1.261       .  A
N3728      O3731   1.262       .  A
C3733      C3734   1.409       .  A
C3733      C3738   1.398       .  A
C3733      H3740   1.084       .  S
C3734      C3735   1.415       .  A
C3735      C3736   1.399       .  A
C3735      N3742   1.427       .  S
C3736      C3737   1.400       .  A
C3736      H3741   1.084       .  S
C3737      C3738   1.409       .  A
C3738      N3739   1.429       .  S
N3739      O3743   1.262       .  A
N3739      O3744   1.262       .  A
N3742      O3746   1.262       .  A
N3742      O3745   1.262       .  A
C3747      C3748   1.401       .  A
C3747      C3752   1.400       .  A
C3747      H3754   1.084       .  S
C3748      C3749   1.407       .  A
C3749      C3750   1.396       .  A
C3749      N3756   1.428       .  S
C3750      C3751   1.408       .  A
C3750      H3755   1.084       .  S
C3751      C3752   1.415       .  A
C3752      N3753   1.428       .  S
N3753      O3757   1.262       .  A
N3753      O3758   1.261       .  A
N3756      O3760   1.262       .  A
N3756      O3759   1.262       .  A
C3761      C3762   1.405       .  A
C3761      C3766   1.403       .  A
C3761      H3768   1.078       .  S
C3762      C3763   1.410       .  A
C3763      C3764   1.399       .  A
C3763      N3770   1.425       .  S
C3764      C3765   1.397       .  A
C3764      H3769   1.084       .  S
C3765      C3766   1.404       .  A
C3766      N3767   1.431       .  S
N3767      O3771   1.262       .  A
N3767      O3772   1.262       .  A
N3770      O3774   1.262       .  A
N3770      O3773   1.262       .  A
C3775      C3776   1.407       .  A
C3775      C3780   1.403       .  A
C3775      H3782   1.084       .  S
C3776      C3777   1.412       .  A
C3777      C3778   1.397       .  A
C3777      N3784   1.429       .  S
C3778      C3779   1.405       .  A
C3778      H3783   1.085       .  S
C3779      C3780   1.410       .  A
C3780      N3781   1.427       .  S
N3781      O3785   1.262       .  A
N3781      O3786   1.262       .  A
N3784      O3788   1.262       .  A
N3784      O3787   1.262       .  A
C3789      C3790   1.402       .  A
C3789      C3794   1.404       .  A
C3789      H3796   1.084       .  S
C3790      C3791   1.409       .  A
C3791      C3792   1.398       .  A
C3791      N3798   1.427       .  S
C3792      C3793   1.401       .  A
C3792      H3797   1.085       .  S
C3793      C3794   1.413       .  A
C3794      N3795   1.428       .  S
N3795      O3799   1.262       .  A
N3795      O3800   1.262       .  A
N3798      O3802   1.262       .  A
N3798      O3801   1.262       .  A
C3803      C3804   1.416       .  A
C3803      C3808   1.398       .  A
C3803      H3810   1.083       .  S
C3804      C3805   1.420       .  A
C3805      C3806   1.392       .  A
C3805      N3812   1.427       .  S
C3806      C3807   1.391       .  A
C3806      H3811   1.084       .  S
C3807      C3808   1.399       .  A
C3808      N3809   1.431       .  S
N3809      O3813   1.262       .  A
N3809      O3814   1.262       .  A
N3812      O3816   1.262       .  A
N3812      O3815   1.262       .  A
C3817      C3818   1.404       .  A
C3817      C3822   1.402       .  A
C3817      H3824   1.084       .  S
C3818      C3819   1.410       .  A
C3819      C3820   1.401       .  A
C3819      N3826   1.427       .  S
C3820      C3821   1.401       .  A
C3820      H3825   1.084       .  S
C3821      C3822   1.411       .  A
C3822      N3823   1.428       .  S
N3823      O3827   1.262       .  A
N3823      O3828   1.262       .  A
N3826      O3830   1.262       .  A
N3826      O3829   1.262       .  A
C3831      C3832   1.415       .  A
C3831      C3836   1.399       .  A
C3831      H3838   1.083       .  S
C3832      C3833   1.417       .  A
C3833      C3834   1.393       .  A
C3833      N3840   1.427       .  S
C3834      C3835   1.392       .  A
C3834      H3839   1.084       .  S
C3835      C3836   1.399       .  A
C3836      N3837   1.430       .  S
N3837      O3841   1.262       .  A
N3837      O3842   1.262       .  A
N3840      O3844   1.262       .  A
N3840      O3843   1.262       .  A
C3845      C3846   1.412       .  A
C3845      C3850   1.403       .  A
C3845      H3852   1.084       .  S
C3846      C3847   1.411       .  A
C3847      C3848   1.396       .  A
C3847      N3854   1.426       .  S
C3848      C3849   1.395       .  A
C3848      H3853   1.084       .  S
C3849      C3850   1.402       .  A
C3850      N3851   1.431       .  S
N3851      O3855   1.262       .  A
N3851      O3856   1.262       .  A
N3854      O3858   1.261       .  A
N3854      O3857   1.262       .  A
C3859      C3860   1.404       .  A
C3859      C3864   1.396       .  A
C3859      H3866   1.085       .  S
C3860      C3861   1.411       .  A
C3861      C3862   1.402       .  A
C3861      N3868   1.427       .  S
C3862      C3863   1.403       .  A
C3862      H3867   1.084       .  S
C3863      C3864   1.407       .  A
C3864      N3865   1.428       .  S
N3865      O3869   1.262       .  A
N3865      O3870   1.262       .  A
N3868      O3872   1.262       .  A
N3868      O3871   1.262       .  A
C3873      C3874   1.401       .  A
C3873      C3878   1.405       .  A
C3873      H3880   1.084       .  S
C3874      C3875   1.415       .  A
C3875      C3876   1.392       .  A
C3875      N3882   1.429       .  S
C3876      C3877   1.397       .  A
C3876      H3881   1.084       .  S
C3877      C3878   1.416       .  A
C3878      N3879   1.427       .  S
N3879      O3883   1.262       .  A
N3879      O3884   1.262       .  A
N3882      O3886   1.262       .  A
N3882      O3885   1.262       .  A
C3887      C3888   1.414       .  A
C3887      C3892   1.397       .  A
C3887      H3894   1.082       .  S
C3888      C3889   1.416       .  A
C3889      C3890   1.394       .  A
C3889      N3896   1.427       .  S
C3890      C3891   1.394       .  A
C3890      H3895   1.084       .  S
C3891      C3892   1.400       .  A
C3892      N3893   1.430       .  S
N3893      O3897   1.262       .  A
N3893      O3898   1.262       .  A
N3896      O3900   1.262       .  A
N3896      O3899   1.262       .  A
C3901      C3902   1.405       .  A
C3901      C3906   1.393       .  A
C3901      H3908   1.084       .  S
C3902      C3903   1.422       .  A
C3903      C3904   1.395       .  A
C3903      N3910   1.429       .  S
C3904      C3905   1.395       .  A
C3904      H3909   1.085       .  S
C3905      C3906   1.404       .  A
C3906      N3907   1.428       .  S
N3907      O3911   1.262       .  A
N3907      O3912   1.261       .  A
N3910      O3914   1.262       .  A
N3910      O3913   1.262       .  A
C3915      C3916   1.405       .  A
C3915      C3920   1.397       .  A
C3915      H3922   1.084       .  S
C3916      C3917   1.422       .  A
C3917      C3918   1.396       .  A
C3917      N3924   1.429       .  S
C3918      C3919   1.395       .  A
C3918      H3923   1.084       .  S
C3919      C3920   1.409       .  A
C3920      N3921   1.428       .  S
N3921      O3925   1.262       .  A
N3921      O3926   1.262       .  A
N3924      O3928   1.262       .  A
N3924      O3927   1.262       .  A
C3929      C3930   1.409       .  A
C3929      C3934   1.405       .  A
C3929      H3936   1.084       .  S
C3930      C3931   1.417       .  A
C3931      C3932   1.391       .  A
C3931      N3938   1.428       .  S
C3932      C3933   1.392       .  A
C3932      H3937   1.085       .  S
C3933      C3934   1.403       .  A
C3934      N3935   1.430       .  S
N3935      O3939   1.262       .  A
N3935      O3940   1.262       .  A
N3938      O3942   1.262       .  A
N3938      O3941   1.262       .  A
C3943      C3944   1.407       .  A
C3943      C3948   1.401       .  A
C3943      H3950   1.084       .  S
C3944      C3945   1.413       .  A
C3945      C3946   1.395       .  A
C3945      N3952   1.427       .  S
C3946      C3947   1.393       .  A
C3946      H3951   1.084       .  S
C3947      C3948   1.404       .  A
C3948      N3949   1.431       .  S
N3949      O3953   1.262       .  A
N3949      O3954   1.262       .  A
N3952      O3956   1.261       .  A
N3952      O3955   1.262       .  A
C3957      C3958   1.411       .  A
C3957      C3962   1.398       .  A
C3957      H3964   1.084       .  S
C3958      C3959   1.410       .  A
C3959      C3960   1.397       .  A
C3959      N3966   1.426       .  S
C3960      C3961   1.397       .  A
C3960      H3965   1.084       .  S
C3961      C3962   1.401       .  A
C3962      N3963   1.431       .  S
N3963      O3967   1.262       .  A
N3963      O3968   1.262       .  A
N3966      O3970   1.262       .  A
N3966      O3969   1.262       .  A
C3971      C3972   1.415       .  A
C3971      C3976   1.402       .  A
C3971      H3978   1.083       .  S
C3972      C3973   1.418       .  A
C3973      C3974   1.395       .  A
C3973      N3980   1.427       .  S
C3974      C3975   1.395       .  A
C3974      H3979   1.084       .  S
C3975      C3976   1.401       .  A
C3976      N3977   1.430       .  S
N3977      O3981   1.262       .  A
N3977      O3982   1.262       .  A
N3980      O3984   1.262       .  A
N3980      O3983   1.262       .  A
C3985      C3986   1.408       .  A
C3985      C3990   1.396       .  A
C3985      H3992   1.084       .  S
C3986      C3987   1.415       .  A
C3987      C3988   1.402       .  A
C3987      N3994   1.428       .  S
C3988      C3989   1.403       .  A
C3988      H3993   1.084       .  S
C3989      C3990   1.408       .  A
C3990      N3991   1.428       .  S
N3991      O3995   1.262       .  A
N3991      O3996   1.262       .  A
N3994      O3998   1.262       .  A
N3994      O3997   1.262       .  A
C3999      C4000   1.414       .  A
C3999      C4004   1.399       .  A
C3999      H4006   1.083       .  S
C4000      C4001   1.418       .  A
C4001      C4002   1.393       .  A
C4001      N4008   1.427       .  S
C4002      C4003   1.392       .  A
C4002      H4007   1.084       .  S
C4003      C4004   1.400       .  A
C4004      N4005   1.431       .  S
N4005      O4009   1.262       .  A
N4005      O4010   1.262       .  A
N4008      O4012   1.262       .  A
N4008      O4011   1.262       .  A
C4013      C4014   1.406       .  A
C4013      C4018   1.388       .  A
C4013      H4020   1.084       .  S
C4014      C4015   1.415       .  A
C4015      C4016   1.399       .  A
C4015      N4022   1.428       .  S
C4016      C4017   1.398       .  A
C4016      H4021   1.084       .  S
C4017      C4018   1.403       .  A
C4018      N4019   1.428       .  S
N4019      O4023   1.262       .  A
N4019      O4024   1.262       .  A
N4022      O4026   1.262       .  A
N4022      O4025   1.262       .  A
C4027      C4028   1.407       .  A
C4027      C4032   1.393       .  A
C4027      H4034   1.084       .  S
C4028      C4029   1.416       .  A
C4029      C4030   1.399       .  A
C4029      N4036   1.428       .  S
C4030      C4031   1.399       .  A
C4030      H4035   1.084       .  S
C4031      C4032   1.405       .  A
C4032      N4033   1.428       .  S
N4033      O4037   1.262       .  A
N4033      O4038   1.262       .  A
N4036      O4040   1.262       .  A
N4036      O4039   1.262       .  A
C4041      C4042   1.403       .  A
C4041      C4046   1.401       .  A
C4041      H4048   1.084       .  S
C4042      C4043   1.408       .  A
C4043      C4044   1.399       .  A
C4043      N4050   1.430       .  S
C4044      C4045   1.402       .  A
C4044      H4049   1.084       .  S
C4045      C4046   1.407       .  A
C4046      N4047   1.429       .  S
N4047      O4051   1.262       .  A
N4047      O4052   1.262       .  A
N4050      O4054   1.261       .  A
N4050      O4053   1.262       .  A
C4055      C4056   1.407       .  A
C4055      C4060   1.404       .  A
C4055      H4062   1.084       .  S
C4056      C4057   1.417       .  A
C4057      C4058   1.398       .  A
C4057      N4064   1.428       .  S
C4058      C4059   1.394       .  A
C4058      H4063   1.084       .  S
C4059      C4060   1.405       .  A
C4060      N4061   1.429       .  S
N4061      O4065   1.262       .  A
N4061      O4066   1.262       .  A
N4064      O4068   1.262       .  A
N4064      O4067   1.262       .  A
C4069      C4070   1.404       .  A
C4069      C4074   1.394       .  A
C4069      H4076   1.084       .  S
C4070      C4071   1.418       .  A
C4071      C4072   1.397       .  A
C4071      N4078   1.429       .  S
C4072      C4073   1.397       .  A
C4072      H4077   1.084       .  S
C4073      C4074   1.409       .  A
C4074      N4075   1.428       .  S
N4075      O4079   1.262       .  A
N4075      O4080   1.262       .  A
N4078      O4082   1.262       .  A
N4078      O4081   1.262       .  A
C4083      C4084   1.409       .  A
C4083      C4088   1.398       .  A
C4083      H4090   1.084       .  S
C4084      C4085   1.416       .  A
C4085      C4086   1.394       .  A
C4085      N4092   1.428       .  S
C4086      C4087   1.397       .  A
C4086      H4091   1.085       .  S
C4087      C4088   1.407       .  A
C4088      N4089   1.428       .  S
N4089      O4093   1.262       .  A
N4089      O4094   1.262       .  A
N4092      O4096   1.262       .  A
N4092      O4095   1.262       .  A
C4097      C4098   1.401       .  A
C4097      C4102   1.398       .  A
C4097      H4104   1.085       .  S
C4098      C4099   1.408       .  A
C4099      C4100   1.394       .  A
C4099      N4106   1.428       .  S
C4100      C4101   1.400       .  A
C4100      H4105   1.084       .  S
C4101      C4102   1.411       .  A
C4102      N4103   1.428       .  S
N4103      O4107   1.262       .  A
N4103      O4108   1.262       .  A
N4106      O4110   1.262       .  A
N4106      O4109   1.262       .  A
C4111      C4112   1.405       .  A
C4111      C4116   1.393       .  A
C4111      H4118   1.084       .  S
C4112      C4113   1.420       .  A
C4113      C4114   1.398       .  A
C4113      N4120   1.428       .  S
C4114      C4115   1.397       .  A
C4114      H4119   1.084       .  S
C4115      C4116   1.406       .  A
C4116      N4117   1.428       .  S
N4117      O4121   1.262       .  A
N4117      O4122   1.262       .  A
N4120      O4124   1.262       .  A
N4120      O4123   1.262       .  A
C4125      C4126   1.402       .  A
C4125      C4130   1.396       .  A
C4125      H4132   1.085       .  S
C4126      C4127   1.408       .  A
C4127      C4128   1.400       .  A
C4127      N4134   1.427       .  S
C4128      C4129   1.405       .  A
C4128      H4133   1.084       .  S
C4129      C4130   1.410       .  A
C4130      N4131   1.428       .  S
N4131      O4135   1.262       .  A
N4131      O4136   1.262       .  A
N4134      O4138   1.261       .  A
N4134      O4137   1.262   1_554  A
C4139      C4140   1.397       .  A
C4139      C4144   1.395       .  A
C4139      H4146   1.085       .  S
C4140      C4141   1.405       .  A
C4141      C4142   1.407       .  A
C4141      N4148   1.430       .  S
C4142      C4143   1.409       .  A
C4142      H4147   1.083       .  S
C4143      C4144   1.410       .  A
C4144      N4145   1.426       .  S
N4145      O4149   1.262       .  A
N4145      O4150   1.262       .  A
N4148      O4152   1.262       .  A
N4148      O4151   1.262       .  A
C4153      C4154   1.406       .  A
C4153      C4158   1.393       .  A
C4153      H4160   1.084       .  S
C4154      C4155   1.420       .  A
C4155      C4156   1.393       .  A
C4155      N4162   1.429       .  S
C4156      C4157   1.398       .  A
C4156      H4161   1.085       .  S
C4157      C4158   1.405       .  A
C4158      N4159   1.428       .  S
N4159      O4163   1.261       .  A
N4159      O4164   1.262       .  A
N4162      O4166   1.262       .  A
N4162      O4165   1.262       .  A
C4167      C4168   1.404       .  A
C4167      C4172   1.391       .  A
C4167      H4174   1.083       .  S
C4168      C4169   1.422       .  A
C4169      C4170   1.401       .  A
C4169      N4176   1.429       .  S
C4170      C4171   1.398       .  A
C4170      H4175   1.084       .  S
C4171      C4172   1.405       .  A
C4172      N4173   1.427       .  S
N4173      O4177   1.262       .  A
N4173      O4178   1.262       .  A
N4176      O4180   1.262       .  A
N4176      O4179   1.262       .  A
C4181      C4182   1.396       .  A
C4181      C4186   1.394       .  A
C4181      H4188   1.084       .  S
C4182      C4183   1.414       .  A
C4183      C4184   1.400       .  A
C4183      N4190   1.428       .  S
C4184      C4185   1.398       .  A
C4184      H4189   1.084       .  S
C4185      C4186   1.413       .  A
C4186      N4187   1.428       .  S
N4187      O4191   1.262       .  A
N4187      O4192   1.262       .  A
N4190      O4194   1.262       .  A
N4190      O4193   1.262       .  A
C4195      C4196   1.402       .  A
C4195      C4200   1.394       .  A
C4195      H4202   1.085       .  S
C4196      C4197   1.411       .  A
C4197      C4198   1.401       .  A
C4197      N4204   1.427       .  S
C4198      C4199   1.400       .  A
C4198      H4203   1.084       .  S
C4199      C4200   1.406       .  A
C4200      N4201   1.428       .  S
N4201      O4205   1.262       .  A
N4201      O4206   1.262       .  A
N4204      O4208   1.262       .  A
N4204      O4207   1.262       .  A
C4209      C4210   1.406       .  A
C4209      C4214   1.393       .  A
C4209      H4216   1.084       .  S
C4210      C4211   1.418       .  A
C4211      C4212   1.397       .  A
C4211      N4218   1.428       .  S
C4212      C4213   1.396       .  A
C4212      H4217   1.084       .  S
C4213      C4214   1.405       .  A
C4214      N4215   1.428       .  S
N4215      O4219   1.262       .  A
N4215      O4220   1.262       .  A
N4218      O4222   1.262       .  A
N4218      O4221   1.262       .  A
C4223      C4224   1.393       .  A
C4223      C4228   1.393       .  A
C4223      H4230   1.084       .  S
C4224      C4225   1.397       .  A
C4225      C4226   1.398       .  A
C4225      N4232   1.431       .  S
C4226      C4227   1.416       .  A
C4226      H4231   1.083       .  S
C4227      C4228   1.417       .  A
C4228      N4229   1.427       .  S
N4229      O4233   1.262       .  A
N4229      O4234   1.262       .  A
N4232      O4236   1.262       .  A
N4232      O4235   1.262       .  A
C4237      C4238   1.410       .  A
C4237      C4242   1.403       .  A
C4237      H4244   1.084       .  S
C4238      C4239   1.411       .  A
C4239      C4240   1.395       .  A
C4239      N4246   1.426       .  S
C4240      C4241   1.395       .  A
C4240      H4245   1.084       .  S
C4241      C4242   1.402       .  A
C4242      N4243   1.430       .  S
N4243      O4247   1.262       .  A
N4243      O4248   1.262       .  A
N4246      O4250   1.262       .  A
N4246      O4249   1.262       .  A
C4251      C4252   1.412       .  A
C4251      C4256   1.401       .  A
C4251      H4258   1.084       .  S
C4252      C4253   1.415       .  A
C4253      C4254   1.398       .  A
C4253      N4260   1.426       .  S
C4254      C4255   1.395       .  A
C4254      H4259   1.084       .  S
C4255      C4256   1.403       .  A
C4256      N4257   1.431       .  S
N4257      O4261   1.262       .  A
N4257      O4262   1.262       .  A
N4260      O4264   1.262       .  A
N4260      O4263   1.262       .  A
C4265      C4266   1.398       .  A
C4265      C4270   1.400       .  A
C4265      H4272   1.084       .  S
C4266      C4267   1.414       .  A
C4267      C4268   1.396       .  A
C4267      N4274   1.428       .  S
C4268      C4269   1.397       .  A
C4268      H4273   1.084       .  S
C4269      C4270   1.413       .  A
C4270      N4271   1.427       .  S
N4271      O4275   1.262       .  A
N4271      O4276   1.262       .  A
N4274      O4278   1.262       .  A
N4274      O4277   1.262       .  A
C4279      C4280   1.405       .  A
C4279      C4284   1.392       .  A
C4279      H4286   1.083       .  S
C4280      C4281   1.423       .  A
C4281      C4282   1.398       .  A
C4281      N4288   1.429       .  S
C4282      C4283   1.396       .  A
C4282      H4287   1.084       .  S
C4283      C4284   1.405       .  A
C4284      N4285   1.427       .  S
N4285      O4289   1.262       .  A
N4285      O4290   1.262       .  A
N4288      O4292   1.262       .  A
N4288      O4291   1.262       .  A
C4293      C4294   1.406       .  A
C4293      C4298   1.396       .  A
C4293      H4300   1.084       .  S
C4294      C4295   1.417       .  A
C4295      C4296   1.398       .  A
C4295      N4302   1.428       .  S
C4296      C4297   1.399       .  A
C4296      H4301   1.084       .  S
C4297      C4298   1.407       .  A
C4298      N4299   1.427       .  S
N4299      O4303   1.262       .  A
N4299      O4304   1.262       .  A
N4302      O4306   1.262       .  A
N4302      O4305   1.262       .  A
C4307      C4308   1.407       .  A
C4307      C4312   1.396       .  A
C4307      H4314   1.084       .  S
C4308      C4309   1.419       .  A
C4309      C4310   1.399       .  A
C4309      N4316   1.428       .  S
C4310      C4311   1.397       .  A
C4310      H4315   1.084       .  S
C4311      C4312   1.405       .  A
C4312      N4313   1.428       .  S
N4313      O4317   1.262       .  A
N4313      O4318   1.262       .  A
N4316      O4320   1.262       .  A
N4316      O4319   1.262       .  A
C4321      C4322   1.399       .  A
C4321      C4326   1.401       .  A
C4321      H4328   1.084       .  S
C4322      C4323   1.415       .  A
C4323      C4324   1.396       .  A
C4323      N4330   1.428       .  S
C4324      C4325   1.398       .  A
C4324      H4329   1.084       .  S
C4325      C4326   1.418       .  A
C4326      N4327   1.429       .  S
N4327      O4331   1.262       .  A
N4327      O4332   1.262       .  A
N4330      O4334   1.262       .  A
N4330      O4333   1.262       .  A
C4335      C4336   1.401       .  A
C4335      C4340   1.393       .  A
C4335      H4342   1.085       .  S
C4336      C4337   1.412       .  A
C4337      C4338   1.402       .  A
C4337      N4344   1.428       .  S
C4338      C4339   1.401       .  A
C4338      H4343   1.084       .  S
C4339      C4340   1.407       .  A
C4340      N4341   1.427       .  S
N4341      O4345   1.262       .  A
N4341      O4346   1.262       .  A
N4344      O4348   1.262       .  A
N4344      O4347   1.262       .  A
C4349      C4350   1.395       .  A
C4349      C4354   1.396       .  A
C4349      H4356   1.084       .  S
C4350      C4351   1.407       .  A
C4351      C4352   1.393       .  A
C4351      N4358   1.428       .  S
C4352      C4353   1.403       .  A
C4352      H4357   1.084       .  S
C4353      C4354   1.423       .  A
C4354      N4355   1.429       .  S
N4355      O4359   1.262       .  A
N4355      O4360   1.262       .  A
N4358      O4362   1.262       .  A
N4358      O4361   1.262       .  A
C4363      C4364   1.403       .  A
C4363      C4368   1.396       .  A
C4363      H4370   1.085       .  S
C4364      C4365   1.408       .  A
C4365      C4366   1.400       .  A
C4365      N4372   1.427       .  S
C4366      C4367   1.402       .  A
C4366      H4371   1.084       .  S
C4367      C4368   1.408       .  A
C4368      N4369   1.428       .  S
N4369      O4373   1.262       .  A
N4369      O4374   1.262       .  A
N4372      O4376   1.262       .  A
N4372      O4375   1.262       .  A
C4377      C4378   1.406       .  A
C4377      C4382   1.402       .  A
C4377      H4384   1.084       .  S
C4378      C4379   1.424       .  A
C4379      C4380   1.401       .  A
C4379      N4386   1.429       .  S
C4380      C4381   1.397       .  A
C4380      H4385   1.084       .  S
C4381      C4382   1.411       .  A
C4382      N4383   1.427       .  S
N4383      O4387   1.262       .  A
N4383      O4388   1.262       .  A
N4386      O4390   1.262       .  A
N4386      O4389   1.262       .  A
C4391      C4392   1.395       .  A
C4391      C4396   1.394       .  A
C4391      H4398   1.085       .  S
C4392      C4393   1.409       .  A
C4393      C4394   1.398       .  A
C4393      N4400   1.428       .  S
C4394      C4395   1.407       .  A
C4394      H4399   1.084       .  S
C4395      C4396   1.420       .  A
C4396      N4397   1.428       .  S
N4397      O4401   1.262       .  A
N4397      O4402   1.262       .  A
N4400      O4404   1.262       .  A
N4400      O4403   1.262       .  A
C4405      C4406   1.396       .  A
C4405      C4410   1.394       .  A
C4405      H4412   1.084       .  S
C4406      C4407   1.417       .  A
C4407      C4408   1.405       .  A
C4407      N4414   1.428       .  S
C4408      C4409   1.401       .  A
C4408      H4413   1.084       .  S
C4409      C4410   1.417       .  A
C4410      N4411   1.428       .  S
N4411      O4415   1.262       .  A
N4411      O4416   1.261       .  A
N4414      O4418   1.262       .  A
N4414      O4417   1.262       .  A
C4419      C4420   1.403       .  A
C4419      C4424   1.397       .  A
C4419      H4426   1.084       .  S
C4420      C4421   1.421       .  A
C4421      C4422   1.401       .  A
C4421      N4428   1.429       .  S
C4422      C4423   1.398       .  A
C4422      H4427   1.084       .  S
C4423      C4424   1.409       .  A
C4424      N4425   1.428       .  S
N4425      O4429   1.262       .  A
N4425      O4430   1.262       .  A
N4428      O4432   1.262       .  A
N4428      O4431   1.262       .  A
C4433      C4434   1.398       .  A
C4433      C4438   1.396       .  A
C4433      H4440   1.084       .  S
C4434      C4435   1.412       .  A
C4435      C4436   1.401       .  A
C4435      N4442   1.428       .  S
C4436      C4437   1.400       .  A
C4436      H4441   1.084       .  S
C4437      C4438   1.412       .  A
C4438      N4439   1.428       .  S
N4439      O4443   1.262       .  A
N4439      O4444   1.262       .  A
N4442      O4446   1.262       .  A
N4442      O4445   1.262       .  A
C4447      C4448   1.403       .  A
C4447      C4452   1.406       .  A
C4447      H4454   1.084       .  S
C4448      C4449   1.407       .  A
C4449      C4450   1.395       .  A
C4449      N4456   1.428       .  S
C4450      C4451   1.403       .  A
C4450      H4455   1.085       .  S
C4451      C4452   1.414       .  A
C4452      N4453   1.427       .  S
N4453      O4457   1.262       .  A
N4453      O4458   1.262       .  A
N4456      O4460   1.262       .  A
N4456      O4459   1.262       .  A
C4461      C4462   1.397       .  A
C4461      C4466   1.398       .  A
C4461      H4468   1.084       .  S
C4462      C4463   1.412       .  A
C4463      C4464   1.402       .  A
C4463      N4470   1.428       .  S
C4464      C4465   1.401       .  A
C4464      H4469   1.084       .  S
C4465      C4466   1.413       .  A
C4466      N4467   1.427       .  S
N4467      O4471   1.262       .  A
N4467      O4472   1.262   1_565  A
N4470      O4474   1.262       .  A
N4470      O4473   1.262       .  A
C4475      C4476   1.397       .  A
C4475      C4480   1.396       .  A
C4475      H4482   1.084       .  S
C4476      C4477   1.412       .  A
C4477      C4478   1.401       .  A
C4477      N4484   1.427       .  S
C4478      C4479   1.400       .  A
C4478      H4483   1.084       .  S
C4479      C4480   1.413       .  A
C4480      N4481   1.428       .  S
N4481      O4485   1.262       .  A
N4481      O4486   1.262       .  A
N4484      O4488   1.262       .  A
N4484      O4487   1.262       .  A
C4489      C4490   1.395       .  A
C4489      C4494   1.395       .  A
C4489      H4496   1.085       .  S
C4490      C4491   1.407       .  A
C4491      C4492   1.397       .  A
C4491      N4498   1.426       .  S
C4492      C4493   1.404       .  A
C4492      H4497   1.084       .  S
C4493      C4494   1.423       .  A
C4494      N4495   1.430       .  S
N4495      O4499   1.261       .  A
N4495      O4500   1.262       .  A
N4498      O4502   1.262       .  A
N4498      O4501   1.262       .  A
C4503      C4504   1.401       .  A
C4503      C4508   1.402       .  A
C4503      H4510   1.084       .  S
C4504      C4505   1.406       .  A
C4505      C4506   1.397       .  A
C4505      N4512   1.427       .  S
C4506      C4507   1.409       .  A
C4506      H4511   1.084       .  S
C4507      C4508   1.418       .  A
C4508      N4509   1.428       .  S
N4509      O4513   1.262       .  A
N4509      O4514   1.262       .  A
N4512      O4516   1.262       .  A
N4512      O4515   1.262       .  A
C4517      C4518   1.408       .  A
C4517      C4522   1.394       .  A
C4517      H4524   1.084       .  S
C4518      C4519   1.413       .  A
C4519      C4520   1.401       .  A
C4519      N4526   1.428       .  S
C4520      C4521   1.403       .  A
C4520      H4525   1.084       .  S
C4521      C4522   1.406       .  A
C4522      N4523   1.428       .  S
N4523      O4527   1.262       .  A
N4523      O4528   1.262       .  A
N4526      O4530   1.262       .  A
N4526      O4529   1.262       .  A
C4531      C4532   1.404       .  A
C4531      C4536   1.396       .  A
C4531      H4538   1.085       .  S
C4532      C4533   1.409       .  A
C4533      C4534   1.401       .  A
C4533      N4540   1.426       .  S
C4534      C4535   1.403       .  A
C4534      H4539   1.084       .  S
C4535      C4536   1.409       .  A
C4536      N4537   1.428       .  S
N4537      O4541   1.262       .  A
N4537      O4542   1.262       .  A
N4540      O4544   1.262       .  A
N4540      O4543   1.262       .  A
C4545      C4546   1.401       .  A
C4545      C4550   1.396       .  A
C4545      H4552   1.084       .  S
C4546      C4547   1.414       .  A
C4547      C4548   1.401       .  A
C4547      N4554   1.427       .  S
C4548      C4549   1.401       .  A
C4548      H4553   1.084       .  S
C4549      C4550   1.414       .  A
C4550      N4551   1.428       .  S
N4551      O4555   1.262       .  A
N4551      O4556   1.262       .  A
N4554      O4558   1.261       .  A
N4554      O4557   1.262       .  A
C4559      C4560   1.408       .  A
C4559      C4564   1.400   1_655  A
C4559      H4566   1.083       .  S
C4560      C4561   1.424   1_655  A
C4561      C4562   1.408       .  A
C4561      N4568   1.428       .  S
C4562      C4563   1.401       .  A
C4562      H4567   1.084       .  S
C4563      C4564   1.408       .  A
C4564      N4565   1.427       .  S
N4565      O4569   1.262       .  A
N4565      O4570   1.262       .  A
N4568      O4572   1.262   1_455  A
N4568      O4571   1.262       .  A
C4573      C4574   1.405       .  A
C4573      C4578   1.401       .  A
C4573      H4580   1.084       .  S
C4574      C4575   1.419       .  A
C4575      C4576   1.404       .  A
C4575      N4582   1.428   1_545  S
C4576      C4577   1.402       .  A
C4576      H4581   1.084       .  S
C4577      C4578   1.410       .  A
C4578      N4579   1.427       .  S
N4579      O4583   1.262       .  A
N4579      O4584   1.262       .  A
N4582      O4586   1.261   1_565  A
N4582      O4585   1.262       .  A
C4587      C4588   1.403       .  A
C4587      C4592   1.400       .  A
C4587      H4594   1.084       .  S
C4588      C4589   1.420       .  A
C4589      C4590   1.402       .  A
C4589      N4596   1.429       .  S
C4590      C4591   1.400       .  A
C4590      H4595   1.084       .  S
C4591      C4592   1.411       .  A
C4592      N4593   1.427       .  S
N4593      O4597   1.262       .  A
N4593      O4598   1.262       .  A
N4596      O4600   1.262       .  A
N4596      O4599   1.262       .  A
C4601      C4602   1.404   1_554  A
C4601      C4606   1.393       .  A
C4601      H4608   1.083   1_554  S
C4602      C4603   1.420   1_556  A
C4603      C4604   1.406       .  A
C4603      N4610   1.428       .  S
C4604      C4605   1.402       .  A
C4604      H4609   1.084       .  S
C4605      C4606   1.408       .  A
C4606      N4607   1.428       .  S
N4607      O4611   1.262       .  A
N4607      O4612   1.262       .  A
N4610      O4614   1.262       .  A
N4610      O4613   1.262       .  A
C4615      C4616   1.405   1_455  A
C4615      C4620   1.396       .  A
C4615      H4622   1.083   1_455  S
C4616      C4617   1.422       .  A
C4617      C4618   1.402   1_655  A
C4617      N4624   1.428       .  S
C4618      C4619   1.398       .  A
C4618      H4623   1.084       .  S
C4619      C4620   1.407       .  A
C4620      N4621   1.427       .  S
N4621      O4625   1.262       .  A
N4621      O4626   1.262       .  A
N4624      O4628   1.262       .  A
N4624      O4627   1.262       .  A
C4629      C4630   1.406       .  A
C4629      C4634   1.397       .  A
C4629      H4636   1.083       .  S
C4630      C4631   1.421       .  A
C4631      C4632   1.405       .  A
C4631      N4638   1.428       .  S
C4632      C4633   1.401       .  A
C4632      H4637   1.084       .  S
C4633      C4634   1.408       .  A
C4634      N4635   1.427       .  S
N4635      O4639   1.262       .  A
N4635      O4640   1.262       .  A
N4638      O4642   1.262   1_545  A
N4638      O4641   1.262       .  A
C4643      C4644   1.403       .  A
C4643      C4648   1.395       .  A
C4643      H4650   1.083       .  S
C4644      C4645   1.422       .  A
C4645      C4646   1.407       .  A
C4645      N4652   1.429       .  S
C4646      C4647   1.402       .  A
C4646      H4651   1.084       .  S
C4647      C4648   1.409       .  A
C4648      N4649   1.427       .  S
N4649      O4653   1.262       .  A
N4649      O4654   1.262       .  A
N4652      O4656   1.262       .  A
N4652      O4655   1.262       .  A
C4657      C4658   1.404   1_554  A
C4657      C4662   1.399       .  A
C4657      H4664   1.084       .  S
C4658      C4659   1.421   1_556  A
C4659      C4660   1.401       .  A
C4659      N4666   1.429   1_554  S
C4660      C4661   1.399       .  A
C4660      H4665   1.084       .  S
C4661      C4662   1.409       .  A
C4662      N4663   1.427       .  S
N4663      O4667   1.262       .  A
N4663      O4668   1.262       .  A
N4666      O4670   1.262       .  A
N4666      O4669   1.262       .  A
C4671      C4672   1.421       .  A
C4671      C4676   1.412       .  A
C4671      H4678   1.083       .  S
C4672      C4673   1.421       .  A
C4673      C4674   1.400       .  A
C4673      N4680   1.420       .  S
C4674      C4675   1.391       .  A
C4674      H4679   1.084       .  S
C4675      C4676   1.403       .  A
C4676      N4677   1.430       .  S
N4677      O4681   1.262       .  A
N4677      O4682   1.262       .  A
N4680      O4684   1.262       .  A
N4680      O4683   1.262       .  A
C4685      C4686   1.409       .  A
C4685      C4690   1.400       .  A
C4685      H4692   1.083       .  S
C4686      C4687   1.424       .  A
C4687      C4688   1.408       .  A
C4687      N4694   1.428       .  S
C4688      C4689   1.401       .  A
C4688      H4693   1.084       .  S
C4689      C4690   1.407       .  A
C4690      N4691   1.427       .  S
N4691      O4695   1.262       .  A
N4691      O4696   1.262       .  A
N4694      O4698   1.262       .  A
N4694      O4697   1.262       .  A
C4699      C4700   1.416       .  A
C4699      C4704   1.408       .  A
C4699      H4706   1.083       .  S
C4700      C4701   1.420       .  A
C4701      C4702   1.399       .  A
C4701      N4708   1.423       .  S
C4702      C4703   1.392       .  A
C4702      H4707   1.085       .  S
C4703      C4704   1.402       .  A
C4704      N4705   1.429       .  S
N4705      O4709   1.262       .  A
N4705      O4710   1.262       .  A
N4708      O4712   1.262       .  A
N4708      O4711   1.261       .  A
C4713      C4714   1.417       .  A
C4713      C4718   1.403       .  A
C4713      H4720   1.083       .  S
C4714      C4715   1.419       .  A
C4715      C4716   1.397       .  A
C4715      N4722   1.427       .  S
C4716      C4717   1.394       .  A
C4716      H4721   1.084       .  S
C4717      C4718   1.400       .  A
C4718      N4719   1.430       .  S
N4719      O4723   1.262       .  A
N4719      O4724   1.262       .  A
N4722      O4726   1.262       .  A
N4722      O4725   1.262       .  A
C4727      C4728   1.400       .  A
C4727      C4732   1.391       .  A
C4727      H4734   1.085       .  S
C4728      C4729   1.410       .  A
C4729      C4730   1.397       .  A
C4729      N4736   1.428       .  S
C4730      C4731   1.400       .  A
C4730      H4735   1.084       .  S
C4731      C4732   1.407       .  A
C4732      N4733   1.428       .  S
N4733      O4737   1.262       .  A
N4733      O4738   1.262       .  A
N4736      O4740   1.262       .  A
N4736      O4739   1.262       .  A
C4741      C4742   1.410       .  A
C4741      C4746   1.399       .  A
C4741      H4748   1.083       .  S
C4742      C4743   1.419       .  A
C4743      C4744   1.397       .  A
C4743      N4750   1.428       .  S
C4744      C4745   1.397       .  A
C4744      H4749   1.085       .  S
C4745      C4746   1.406       .  A
C4746      N4747   1.428       .  S
N4747      O4751   1.262       .  A
N4747      O4752   1.262       .  A
N4750      O4754   1.262       .  A
N4750      O4753   1.262       .  A
C4755      C4756   1.409       .  A
C4755      C4760   1.397       .  A
C4755      H4762   1.084       .  S
C4756      C4757   1.415       .  A
C4757      C4758   1.404       .  A
C4757      N4764   1.427       .  S
C4758      C4759   1.402       .  A
C4758      H4763   1.084       .  S
C4759      C4760   1.406       .  A
C4760      N4761   1.428       .  S
N4761      O4765   1.262       .  A
N4761      O4766   1.262       .  A
N4764      O4768   1.262       .  A
N4764      O4767   1.262       .  A
C4769      C4770   1.397       .  A
C4769      C4774   1.397       .  A
C4769      H4776   1.084       .  S
C4770      C4771   1.412       .  A
C4771      C4772   1.395       .  A
C4771      N4778   1.429       .  S
C4772      C4773   1.398       .  A
C4772      H4777   1.084       .  S
C4773      C4774   1.410       .  A
C4774      N4775   1.427       .  S
N4775      O4779   1.262       .  A
N4775      O4780   1.262       .  A
N4778      O4782   1.262       .  A
N4778      O4781   1.262       .  A
C4783      C4784   1.393       .  A
C4783      C4788   1.395       .  A
C4783      H4790   1.084       .  S
C4784      C4785   1.405       .  A
C4785      C4786   1.403       .  A
C4785      N4792   1.430       .  S
C4786      C4787   1.407       .  A
C4786      H4791   1.084       .  S
C4787      C4788   1.414       .  A
C4788      N4789   1.427       .  S
N4789      O4793   1.262       .  A
N4789      O4794   1.262       .  A
N4792      O4796   1.262       .  A
N4792      O4795   1.262       .  A
C4797      C4798   1.401       .  A
C4797      C4802   1.398       .  A
C4797      H4804   1.084       .  S
C4798      C4799   1.410       .  A
C4799      C4800   1.411       .  A
C4799      N4806   1.430       .  S
C4800      C4801   1.412       .  A
C4800      H4805   1.083       .  S
C4801      C4802   1.412       .  A
C4802      N4803   1.427       .  S
N4803      O4807   1.262       .  A
N4803      O4808   1.262       .  A
N4806      O4810   1.262       .  A
N4806      O4809   1.262       .  A
C4811      C4812   1.399       .  A
C4811      C4816   1.397       .  A
C4811      H4818   1.085       .  S
C4812      C4813   1.406       .  A
C4813      C4814   1.393       .  A
C4813      N4820   1.428       .  S
C4814      C4815   1.400       .  A
C4814      H4819   1.084       .  S
C4815      C4816   1.411       .  A
C4816      N4817   1.428       .  S
N4817      O4821   1.262       .  A
N4817      O4822   1.262       .  A
N4820      O4824   1.262       .  A
N4820      O4823   1.262       .  A
C4825      C4826   1.410       .  A
C4825      C4830   1.396       .  A
C4825      H4832   1.084       .  S
C4826      C4827   1.414       .  A
C4827      C4828   1.402       .  A
C4827      N4834   1.427       .  S
C4828      C4829   1.403       .  A
C4828      H4833   1.084       .  S
C4829      C4830   1.405       .  A
C4830      N4831   1.428       .  S
N4831      O4835   1.262       .  A
N4831      O4836   1.262       .  A
N4834      O4838   1.262       .  A
N4834      O4837   1.262       .  A
C4839      C4840   1.414       .  A
C4839      C4844   1.404       .  A
C4839      H4846   1.083       .  S
C4840      C4841   1.426       .  A
C4841      C4842   1.394       .  A
C4841      N4848   1.428       .  S
C4842      C4843   1.389       .  A
C4842      H4847   1.084       .  S
C4843      C4844   1.402       .  A
C4844      N4845   1.430       .  S
N4845      O4849   1.262       .  A
N4845      O4850   1.262       .  A
N4848      O4852   1.262       .  A
N4848      O4851   1.262       .  A
C4853      C4854   1.400       .  A
C4853      C4858   1.393       .  A
C4853      H4860   1.085       .  S
C4854      C4855   1.407       .  A
C4855      C4856   1.398       .  A
C4855      N4862   1.428       .  S
C4856      C4857   1.402       .  A
C4856      H4861   1.084       .  S
C4857      C4858   1.406       .  A
C4858      N4859   1.427       .  S
N4859      O4863   1.262       .  A
N4859      O4864   1.262       .  A
N4862      O4866   1.262       .  A
N4862      O4865   1.262       .  A
C4867      C4868   1.395       .  A
C4867      C4872   1.396       .  A
C4867      H4874   1.084       .  S
C4868      C4869   1.402       .  A
C4869      C4870   1.401       .  A
C4869      N4876   1.430       .  S
C4870      C4871   1.407       .  A
C4870      H4875   1.084       .  S
C4871      C4872   1.413       .  A
C4872      N4873   1.427       .  S
N4873      O4877   1.262       .  A
N4873      O4878   1.262       .  A
N4876      O4880   1.262       .  A
N4876      O4879   1.262       .  A
