geometry optimzed in LAMMPS
_audit_creation_date              2020-11-30 
_audit_creation_method            'lammps2cif' 
_symmetry_space_group_name_H-M    'P1' 
_symmetry_Int_Tables_number       1 
_symmetry_cell_setting            triclinic 
loop_ 
_symmetry_equiv_pos_as_xyz 
  x,y,z 
_cell_length_a                    36.213478810723764 
_cell_length_b                    39.55946993920036 
_cell_length_c                    39.25347545952177 
_cell_angle_alpha                 89.84225165418638 
_cell_angle_beta                  88.30696779440188 
_cell_angle_gamma                 87.82509390184008 
loop_ 
_atom_site_label 
_atom_site_type_symbol 
_atom_site_fract_x 
_atom_site_fract_y 
_atom_site_fract_z 
_atom_site_charge 
O1          O  0.47139104  0.52876991  0.57921183    -0.79910
O2          O  0.53386527  0.42637837  0.46195424    -0.64600
O3          O  0.51804153  0.50126066  0.52675107    -1.11210
C4          C  0.44435721  0.53927323  0.43745229     1.06970
O5          O  0.54318594  0.46168118  0.41939501    -0.77810
O6          O  0.55189283  0.52782787  0.44086778    -0.65390
Ni7        Ni  0.49875825  0.48725987  0.57066109     1.34870
C8          C  0.54970247  0.55283997  0.46169364     0.85710
O9          O  0.56719019  0.44533316  0.52584642    -0.78350
O10         O  0.52824546  0.44662192  0.56875869    -0.88630
C11         C  0.53671312  0.43190781  0.42970482     0.85280
O12         O  0.45587798  0.46484954  0.55232914    -0.66830
O13         O  0.47658369  0.53872998  0.42362401    -0.86120
C14         C  0.45843119  0.43861558  0.53310015     0.86110
C15         C  0.56158859  0.44580794  0.55827970     1.07680
H16         H  0.47054668  0.47456742  0.46621101     0.39480
O17         O  0.49250904  0.48738569  0.46863533    -1.08770
O18         O  0.52074017  0.55649157  0.48136054    -0.65430
Ni19       Ni  0.48236916  0.52500080  0.49948318     1.26350
O20         O  0.48803935  0.43329549  0.51454722    -0.65650
O21         O  0.44182329  0.54153852  0.47015742    -0.77950
C22         C  0.47389276  0.55791991  0.56585845     0.85500
O23         O  0.47515292  0.56152440  0.53327222    -0.65120
Ni24       Ni  0.51101923  0.50087747  0.42440793     1.27450
Ni25       Ni  0.52761634  0.46315156  0.49596937     1.26060
H26         H  0.54000751  0.51406845  0.52917315     0.40040
O27         O  0.48042130  0.20171600  0.15141752    -0.79910
O28         O  0.52985615  0.30850895  0.26685735    -0.64600
O29         O  0.52062400  0.23198961  0.20388735    -1.11210
C30         C  0.45100433  0.19561131  0.29593969     1.06970
O31         O  0.53532137  0.27637362  0.31313641    -0.77810
O32         O  0.55528289  0.21231219  0.28491596    -0.65390
Ni33       Ni  0.50349346  0.24419731  0.15946701     1.34870
C34         C  0.55470682  0.18578026  0.26619414     0.85710
O35         O  0.56577174  0.28749656  0.20310313    -0.78350
O36         O  0.52955068  0.28508618  0.15991028    -0.88630
C37         C  0.53206457  0.30550012  0.29950264     0.85280
O38         O  0.45835196  0.26720073  0.17825989    -0.66830
O39         O  0.48421720  0.19496812  0.30493155    -0.86120
C40         C  0.45809407  0.29390847  0.19690232     0.86110
C41         C  0.56200079  0.28689698  0.17079662     1.07680
H42         H  0.46926838  0.26196683  0.26552182     0.39480
O43         O  0.49194917  0.24853355  0.26240531    -1.08770
O44         O  0.52520603  0.17960419  0.25017848    -0.65430
Ni45       Ni  0.48486001  0.21029752  0.23252084     1.26350
O46         O  0.48622921  0.30005589  0.21483272    -0.65650
O47         O  0.44554359  0.19488587  0.26391161    -0.77950
C48         C  0.47826127  0.17381911  0.16752620     0.85500
O49         O  0.47899945  0.17283901  0.20029832    -0.65120
Ni50       Ni  0.51100715  0.23503368  0.30571842     1.27450
Ni51       Ni  0.52666712  0.27079984  0.23383401     1.26060
H52         H  0.54344620  0.21861028  0.20170931     0.40040
C53         C  0.77932805  0.72307867  0.76596025     0.04110
C54         C  0.79612637  0.73596886  0.73632332    -0.12040
C55         C  0.78060239  0.76466045  0.72048835     0.01610
C56         C  0.74831035  0.78018561  0.73431248    -0.10570
C57         C  0.73127914  0.76710827  0.76351870     0.04100
C58         C  0.74582709  0.73760683  0.77832518    -0.09990
H59         H  0.82238836  0.72513275  0.72690420     0.09690
H60         H  0.73826398  0.80418452  0.72405295     0.07220
H61         H  0.73274669  0.72766732  0.80125206     0.07070
C62         C  0.73505751  0.99441791  0.97050521     0.04110
C63         C  0.75320877  0.02332015  0.96076187    -0.12040
C64         C  0.78290482  0.03385565  0.97933022     0.01610
C65         C  0.79224372  0.01707881  0.00939284    -0.10570
C66         C  0.77321484  0.98842043  0.01960856     0.04100
C67         C  0.74407091  0.97767079  0.00054547    -0.09990
H68         H  0.74644624  0.03581605  0.93700293     0.09690
H69         H  0.81604740  0.02454971  0.02325982     0.07220
H70         H  0.73061075  0.95445872  0.00730030     0.07070
C71         C  0.98726609  0.75897938  0.02830157     0.04110
C72         C  0.02044145  0.77378160  0.01942047    -0.12040
C73         C  0.04318069  0.75967833  0.99369285     0.01610
C74         C  0.03613185  0.72782542  0.98069274    -0.10570
C75         C  0.00273804  0.71283311  0.98917005     0.04100
C76         C  0.97820204  0.72877182  0.01302240    -0.09990
H77         H  0.02626843  0.79843782  0.02954356     0.09690
H78         H  0.05459862  0.71687436  0.96113732     0.07220
H79         H  0.95093108  0.71916399  0.01794983     0.07070
C80         C  0.99049038  0.99683263  0.71696740     0.04110
C81         C  0.97682174  0.02848378  0.72845198    -0.12040
C82         C  0.98801436  0.04066356  0.75979721     0.01610
C83         C  0.01307956  0.02140943  0.77882499    -0.10570
C84         C  0.02812128  0.99110203  0.76620333     0.04100
C85         C  0.01735960  0.97900086  0.73512464    -0.09990
H86         H  0.95598157  0.04232299  0.71420225     0.09690
H87         H  0.01966434  0.02912856  0.80436443     0.07220
H88         H  0.02773726  0.95430669  0.72651427     0.07070
O89         O  0.13702199  0.92401047  0.87404545    -0.73450
O90         O  0.21121421  0.87266289  0.91975629    -0.73480
O91         O  0.20871252  0.92255625  0.86575467    -0.73530
O92         O  0.13901843  0.87798900  0.92423833    -0.73580
O93         O  0.13460061  0.83790741  0.88464094    -0.73520
O94         O  0.20820791  0.87921047  0.82979002    -0.73490
O95         O  0.20639235  0.83023699  0.88348851    -0.73470
O96         O  0.13567333  0.88325496  0.83467457    -0.73530
Ni97       Ni  0.17489134  0.90083219  0.89738251     1.25410
Ni98       Ni  0.17183360  0.85615449  0.85663522     1.25360
C99         C  0.12468780  0.91196680  0.84671108     0.88730
C100        C  0.21309187  0.84073727  0.91340213     0.88660
C101        C  0.21402932  0.91050860  0.83556141     0.88690
C102        C  0.12542932  0.85072909  0.91360045     0.88860
O103        O  0.91596294  0.86510545  0.13080256    -0.73450
O104        O  0.86815167  0.92427125  0.19678069    -0.73480
O105        O  0.92254342  0.86979070  0.19706936    -0.73530
O106        O  0.86631603  0.91575820  0.13083244    -0.73580
O107        O  0.82024456  0.88030869  0.13869006    -0.73520
O108        O  0.88077714  0.83057214  0.20300687    -0.73490
O109        O  0.82487913  0.88672560  0.20609140    -0.73470
O110        O  0.87052144  0.82870238  0.13735633    -0.73530
Ni111      Ni  0.89485049  0.89501373  0.16437653     1.25410
Ni112      Ni  0.84731138  0.85529293  0.17248872     1.25360
C113        C  0.90045905  0.83785722  0.12273574     0.88730
C114        C  0.83499105  0.91763574  0.20646302     0.88660
C115        C  0.91449022  0.83958260  0.20526700     0.88690
C116        C  0.83503652  0.90502061  0.12286268     0.88860
O117        O  0.83769677  0.87469202  0.61247030    -0.73450
O118        O  0.89387453  0.93330732  0.55298821    -0.73480
O119        O  0.83769895  0.88204551  0.54588732    -0.73530
O120        O  0.88729548  0.92246449  0.61819761    -0.73580
O121        O  0.93546813  0.88596743  0.61104428    -0.73520
O122        O  0.87843394  0.83886655  0.54516065    -0.73490
O123        O  0.93598907  0.89193615  0.54423097    -0.73470
O124        O  0.88571471  0.83746296  0.61098156    -0.73530
Ni125      Ni  0.86246050  0.90459531  0.58169631     1.25410
Ni126      Ni  0.91068399  0.86207722  0.57666581     1.25360
C127        C  0.85364576  0.84701890  0.62229572     0.88730
C128        C  0.92771026  0.92401212  0.54524476     0.88660
C129        C  0.84494282  0.85035777  0.54080427     0.88690
C130        C  0.91949913  0.91162254  0.62592432     0.88860
O131        O  0.89467835  0.61305116  0.92350655    -0.73450
O132        O  0.83233268  0.55259060  0.87843411    -0.73480
O133        O  0.89087344  0.54785454  0.92966945    -0.73530
O134        O  0.84244832  0.61786230  0.87662049    -0.73580
O135        O  0.88637357  0.61095687  0.83577358    -0.73520
O136        O  0.93242622  0.53875900  0.88798880    -0.73490
O137        O  0.87252265  0.54716398  0.83521510    -0.73470
O138        O  0.93879573  0.60453672  0.88315403    -0.73530
Ni139      Ni  0.86342428  0.58226718  0.90350262     1.25410
Ni140      Ni  0.90911431  0.57403773  0.85901738     1.25360
C141        C  0.92693691  0.61820738  0.91117202     0.88730
C142        C  0.83841157  0.54767100  0.84630511     0.88660
C143        C  0.92436793  0.53888555  0.92037270     0.88690
C144        C  0.85679189  0.62573206  0.84762094     0.88860
O145        O  0.61965563  0.84877742  0.86446760    -0.73450
O146        O  0.55284425  0.90716810  0.91641931    -0.73480
O147        O  0.54753527  0.85045002  0.86951092    -0.73530
O148        O  0.62451349  0.90093774  0.90622566    -0.73580
O149        O  0.62033767  0.93750069  0.86277046    -0.73520
O150        O  0.54568720  0.88434889  0.82441024    -0.73490
O151        O  0.54815585  0.94158727  0.87181554    -0.73470
O152        O  0.61768312  0.88448826  0.82023688    -0.73530
Ni153      Ni  0.58535120  0.87559378  0.89083528     1.25410
Ni154      Ni  0.58193399  0.91343782  0.84327715     1.25360
C155        C  0.62989059  0.85726377  0.83434586     0.88730
C156        C  0.54576576  0.93690842  0.90442560     0.88660
C157        C  0.54198122  0.85477602  0.83746218     0.88690
C158        C  0.63509016  0.92714314  0.89020681     0.88860
O159        O  0.89167587  0.14951726  0.92470742    -0.73450
O160        O  0.93697713  0.21970968  0.87295147    -0.73480
O161        O  0.88635644  0.21568284  0.93203106    -0.73530
O162        O  0.93706583  0.15304791  0.86982399    -0.73580
O163        O  0.88825832  0.15572432  0.83635031    -0.73520
O164        O  0.83913584  0.21875585  0.89736625    -0.73490
O165        O  0.89043517  0.22124050  0.83758623    -0.73470
O166        O  0.84326785  0.15250114  0.89053683    -0.73530
Ni167      Ni  0.91481194  0.18521967  0.90120093     1.25410
Ni168      Ni  0.86338705  0.18816378  0.86436950     1.25360
C169        C  0.86078720  0.13895059  0.91521015     0.88730
C170        C  0.92515500  0.22451375  0.84271790     0.88660
C171        C  0.85140863  0.22054073  0.92776346     0.88690
C172        C  0.92023586  0.14363329  0.84336629     0.88860
O173        O  0.21473299  0.41683199  0.28770417    -0.79910
O174        O  0.28790674  0.52109085  0.18544505    -0.64600
O175        O  0.26767211  0.45935455  0.26033882    -1.11210
C176        C  0.19555220  0.55616624  0.30175340     1.06970
O177        O  0.30034258  0.55954450  0.22243778    -0.77810
O178        O  0.29561566  0.55299537  0.29128543    -0.65390
Ni179      Ni  0.24543796  0.41832062  0.24697544     1.34870
C180        C  0.29920109  0.52938814  0.31343204     0.85710
O181        O  0.31606654  0.45531054  0.20451968    -0.78350
O182        O  0.27895641  0.41239235  0.20809360    -0.88630
C183        C  0.29389133  0.55191222  0.19193517     0.85280
O184        O  0.20521122  0.44094900  0.22056504    -0.66830
O185        O  0.21953924  0.57241790  0.28494223    -0.86120
C186        C  0.20858058  0.46145034  0.19525154     0.86110
C187        C  0.31170994  0.42317869  0.20508770     1.07680
H188        H  0.22168386  0.52150382  0.23443395     0.39480
O189        O  0.24435557  0.51912992  0.24673578    -1.08770
O190        O  0.27720248  0.50471893  0.31415274    -0.65430
Ni191      Ni  0.23552206  0.49037922  0.28617598     1.26350
O192        O  0.23927443  0.47611627  0.19075001    -0.65650
O193        O  0.19930374  0.52386500  0.30741374    -0.77950
C194        C  0.22303049  0.42557285  0.31771630     0.85500
O195        O  0.22938272  0.45684590  0.32328732    -0.65120
Ni196      Ni  0.26091872  0.56364604  0.25509195     1.27450
Ni197      Ni  0.27869863  0.48870412  0.22231232     1.26060
H198        H  0.28988572  0.45403056  0.27263663     0.40040
O199        O  0.17739723  0.29226542  0.53573867    -0.79910
O200        O  0.27981515  0.21739397  0.42735830    -0.64600
O201        O  0.21977764  0.23964964  0.50858358    -1.11210
C202        C  0.32901758  0.30065296  0.53617099     1.06970
O203        O  0.32618896  0.20447108  0.45961916    -0.77810
O204        O  0.31870581  0.20457044  0.52778047    -0.65390
Ni205      Ni  0.17156458  0.25993540  0.50104655     1.34870
C206        C  0.29455257  0.20466023  0.55226026     0.85710
O207        O  0.21058957  0.19538740  0.45475734    -0.78350
O208        O  0.15920118  0.22623376  0.46808371    -0.88630
C209        C  0.31428840  0.21058620  0.43008624     0.85280
O210        O  0.18850910  0.29356672  0.46826819    -0.66830
O211        O  0.34551734  0.27430130  0.52347571    -0.86120
C212        C  0.21137469  0.29133732  0.44298999     0.86110
C213        C  0.17511123  0.19802273  0.45961951     1.07680
H214        H  0.28539934  0.27758111  0.47334427     0.39480
O215        O  0.28343844  0.25743144  0.48714647    -1.08770
O216        O  0.27252301  0.23032466  0.55696134    -0.65430
Ni217      Ni  0.25529800  0.26875781  0.52857516     1.26350
O218        O  0.23090232  0.26431501  0.43783956    -0.65650
O219        O  0.29353788  0.30107476  0.54303878    -0.77950
C220        C  0.18758625  0.28381453  0.56520128     0.85500
O221        O  0.22223108  0.27742342  0.56898429    -0.65120
Ni222      Ni  0.33236036  0.23830486  0.49308605     1.27450
Ni223      Ni  0.24817408  0.22753680  0.46786021     1.26060
H224        H  0.21681499  0.21965318  0.52244224     0.40040
O225        O  0.48458969  0.72086944  0.66872309    -0.79910
O226        O  0.53559797  0.82593232  0.78258445    -0.64600
O227        O  0.52321134  0.74905006  0.72187468    -1.11210
C228        C  0.44592715  0.71712070  0.81441974     1.06970
O229        O  0.53829803  0.79513343  0.82989739    -0.77810
O230        O  0.55266460  0.72782267  0.80576877    -0.65390
Ni231      Ni  0.50877956  0.76193678  0.67673523     1.34870
C232        C  0.55139229  0.70140682  0.78690264     0.85710
O233        O  0.57179948  0.80238477  0.72026159    -0.78350
O234        O  0.53588234  0.80207042  0.67690889    -0.88630
C235        C  0.53683641  0.82395983  0.81525438     0.85280
O236        O  0.46420385  0.78591562  0.69431769    -0.66830
O237        O  0.47824566  0.71732841  0.82635361    -0.86120
C238        C  0.46468685  0.81309654  0.71197445     0.86110
C239        C  0.56830832  0.80270911  0.68787226     1.07680
H240        H  0.47177657  0.78245569  0.78142160     0.39480
O241        O  0.49373457  0.76785696  0.77943973    -1.08770
O242        O  0.52245040  0.69692495  0.76949265    -0.65430
Ni243      Ni  0.48492873  0.72955732  0.75026111     1.26350
O244        O  0.49250938  0.81870582  0.73046953    -0.65650
O245        O  0.44345921  0.71648183  0.78167726    -0.77950
C246        C  0.47951425  0.69344323  0.68462564     0.85500
O247        O  0.47772396  0.69227316  0.71757880    -0.65120
Ni248      Ni  0.50988215  0.75522908  0.82406745     1.27450
Ni249      Ni  0.53085308  0.78791658  0.75084607     1.26060
H250        H  0.54525030  0.73450916  0.72060661     0.40040
O251        O  0.21084611  0.82890182  0.97232729    -0.79910
O252        O  0.27384336  0.71095411  0.07120740    -0.64600
O253        O  0.25805629  0.77746318  0.99886972    -1.11210
C254        C  0.19529331  0.68942893  0.95461372     1.06970
O255        O  0.28405922  0.66759328  0.03581778    -0.77810
O256        O  0.29943863  0.69519431  0.97125806    -0.65390
Ni257      Ni  0.23414872  0.81910605  0.01457357     1.34870
C258        C  0.29765043  0.71567874  0.94594644     0.85710
O259        O  0.30222430  0.77542025  0.05492239    -0.78350
O260        O  0.26009288  0.81557989  0.05538220    -0.88630
C261        C  0.28027154  0.67927986  0.06593838     0.85280
O262        O  0.19074324  0.79696890  0.03540381    -0.66830
O263        O  0.22797168  0.67688361  0.95553986    -0.86120
C264        C  0.19245880  0.77663601  0.06103270     0.86110
C265        C  0.29406742  0.80703445  0.05424278     1.07680
H266        H  0.21216586  0.71423683  0.02315795     0.39480
O267        O  0.23498613  0.71803126  0.01060103    -1.08770
O268        O  0.26819480  0.73436781  0.94230197    -0.65430
Ni269      Ni  0.22661305  0.75023019  0.97393015     1.26350
O270        O  0.22323099  0.76017356  0.06635177    -0.65650
O271        O  0.19034397  0.72146599  0.95533702    -0.77950
C272        C  0.21643133  0.81647133  0.94268890     0.85500
O273        O  0.22056477  0.78445986  0.93833606    -0.65120
Ni274      Ni  0.25689124  0.67560508  0.99528241     1.27450
Ni275      Ni  0.26651125  0.74539091  0.03580343     1.26060
H276        H  0.28074904  0.78164449  0.98621826     0.40040
O277        O  0.05966102  0.43563488  0.97068481    -0.79910
O278        O  0.97685466  0.53475151  0.07490917    -0.64600
O279        O  0.00096359  0.47469064  0.99913267    -1.11210
C280        C  0.05458572  0.57308086  0.95784062     1.06970
O281        O  0.95588143  0.57352584  0.03981059    -0.77810
O282        O  0.95140332  0.55748707  0.97279441    -0.65390
Ni283      Ni  0.02919708  0.43435399  0.01115284     1.34870
C284        C  0.95514208  0.53739496  0.94747105     0.85710
O285        O  0.95590836  0.46927072  0.05595174    -0.78350
O286        O  0.99759800  0.42763901  0.05018262    -0.88630
C287        C  0.96568896  0.56510874  0.06945102     0.85280
O288        O  0.06732214  0.45631977  0.03768351    -0.66830
O289        O  0.02229391  0.58580407  0.96417564    -0.86120
C290        C  0.06238934  0.47552166  0.06380020     0.86110
C291        C  0.96380181  0.43767755  0.05230843     1.07680
H292        H  0.03813850  0.54076755  0.02431152     0.39480
O293        O  0.01598029  0.53559963  0.01254105    -1.08770
O294        O  0.98531308  0.51940845  0.94380314    -0.65430
Ni295      Ni  0.02814760  0.50698700  0.97367378     1.26350
O296        O  0.03082173  0.49121120  0.06816920    -0.65650
O297        O  0.06021039  0.54098882  0.95494617    -0.77950
C298        C  0.04828781  0.44435010  0.94152246     0.85500
O299        O  0.03831643  0.47518802  0.93642112    -0.65120
Ni300      Ni  0.98884296  0.57676239  0.00145604     1.27450
Ni301      Ni  0.98822319  0.50334453  0.03780607     1.26060
H302        H  0.97901939  0.46893059  0.98732251     0.40040
O303        O  0.23202440  0.91726602  0.77810815    -0.79910
O304        O  0.28360717  0.03804777  0.67546958    -0.64600
O305        O  0.26901380  0.97241965  0.75021045    -1.11210
C306        C  0.19201823  0.06073688  0.79194894     1.06970
O307        O  0.28523674  0.08169458  0.71063992    -0.77810
O308        O  0.29706098  0.04976888  0.77465179    -0.65390
Ni309      Ni  0.25792168  0.92761868  0.73643563     1.34870
C310        C  0.29241706  0.03017301  0.80042240     0.85710
O311        O  0.32149747  0.97450817  0.69609545    -0.78350
O312        O  0.28727328  0.93098554  0.69591048    -0.88630
C313        C  0.28402730  0.07036299  0.68037500     0.85280
O314        O  0.21379978  0.94500367  0.71411807    -0.66830
O315        O  0.22484340  0.07081122  0.79107595    -0.86120
C316        C  0.21362465  0.96490965  0.68825451     0.86110
C317        C  0.31947698  0.94216689  0.69618982     1.07680
H318        H  0.21824054  0.03384746  0.72016235     0.39480
O319        O  0.23930398  0.03021116  0.73455847    -1.08770
O320        O  0.26227772  0.01500318  0.80471671    -0.65430
Ni321      Ni  0.22830699  0.99870163  0.77112324     1.26350
O322        O  0.24114657  0.98389657  0.68179321    -0.65650
O323        O  0.18701107  0.02904049  0.78771508    -0.77950
C324        C  0.22319725  0.93267759  0.80564682     0.85500
O325        O  0.21919850  0.96508051  0.80700525    -0.65120
Ni326      Ni  0.25600049  0.07241127  0.75111323     1.27450
Ni327      Ni  0.27809755  0.00346507  0.71226553     1.26060
H328        H  0.29016550  0.97111327  0.76458155     0.40040
O329        O  0.70309388  0.82221823  0.46425602    -0.79910
O330        O  0.78406019  0.73588601  0.57165354    -0.64600
O331        O  0.76154361  0.78409461  0.48808419    -1.11210
C332        C  0.69205379  0.68272666  0.46849050     1.06970
O333        O  0.79663295  0.69221557  0.54005781    -0.77810
O334        O  0.79772793  0.69430910  0.47228052    -0.65390
Ni335      Ni  0.74309593  0.83013031  0.49294671     1.34870
C336        C  0.79632338  0.71426192  0.44662345     0.85710
O337        O  0.81190493  0.79605007  0.54061491    -0.78350
O338        O  0.78503605  0.84308293  0.51884785    -0.88630
C339        C  0.78727374  0.70393326  0.56913194     0.85280
O340        O  0.70941379  0.82266793  0.53178372    -0.66830
O341        O  0.72245674  0.66878095  0.47813786    -0.86120
C342        C  0.70990878  0.80190480  0.55674477     0.86110
C343        C  0.81275048  0.82785966  0.53230367     1.07680
H344        H  0.71923515  0.72754738  0.52854761     0.39480
O345        O  0.74073091  0.72824012  0.51341272    -1.08770
O346        O  0.76713588  0.73252810  0.44163315    -0.65430
Ni347      Ni  0.72705015  0.75100631  0.47215338     1.26350
O348        O  0.73605014  0.78010954  0.55974450    -0.65650
O349        O  0.69017778  0.71519317  0.46201383    -0.77950
C350        C  0.70910008  0.81046840  0.43457236     0.85660
O351        O  0.71562588  0.77851639  0.43164088    -0.65120
Ni352      Ni  0.76090468  0.68300818  0.50784111     1.27450
Ni353      Ni  0.77504986  0.76141223  0.52969240     1.26060
H354        H  0.78312534  0.78424845  0.47301995     0.40040
O355        O  0.04768992  0.81213847  0.29342389    -0.79910
O356        O  0.97153477  0.71756445  0.19296777    -0.64600
O357        O  0.98983280  0.77628271  0.26896502    -1.11210
C358        C  0.05042418  0.67528335  0.30979298     1.06970
O359        O  0.95336354  0.67892580  0.22871979    -0.77810
O360        O  0.94816103  0.69147041  0.29612831    -0.65390
Ni361      Ni  0.01230933  0.81830831  0.25855146     1.34870
C362        C  0.94821307  0.71377010  0.31956077     0.85710
O363        O  0.94515954  0.78356303  0.21239921    -0.78350
O364        O  0.97425412  0.83025028  0.22694038    -0.88630
C365        C  0.96329675  0.68703929  0.19870814     0.85280
O366        O  0.04955671  0.80224582  0.22362603    -0.66830
O367        O  0.02161575  0.66150602  0.29934459    -0.86120
C368        C  0.04890418  0.77970390  0.20020482     0.86110
C369        C  0.94580797  0.81594668  0.21616338     1.07680
H370        H  0.03264076  0.71076249  0.24160390     0.39480
O371        O  0.00979169  0.71548126  0.25434406    -1.08770
O372        O  0.97617893  0.73221397  0.32273474    -0.65430
Ni373      Ni  0.01953970  0.74329931  0.29319768     1.26350
O374        O  0.02175028  0.75999525  0.19946351    -0.65650
O375        O  0.05244852  0.70772833  0.31210097    -0.77950
C376        C  0.03812783  0.80503960  0.32403297     0.85500
O377        O  0.02802458  0.77500340  0.33041025    -0.65120
Ni378      Ni  0.98685963  0.67338128  0.26473729     1.27450
Ni379      Ni  0.97954705  0.74854946  0.23037451     1.26060
H380        H  0.96700979  0.78116739  0.28168944     0.40040
O381        O  0.53908789  0.98528844  0.07171045    -0.79910
O382        O  0.41772270  0.01225454  0.96469959    -0.64600
O383        O  0.49691668  0.97008002  0.01612035    -1.11210
C384        C  0.56533109  0.05714862  0.96320834     1.06970
O385        O  0.45576306  0.00545798  0.91988988    -0.77810
O386        O  0.52776284  0.99484291  0.91429712    -0.65390
Ni387      Ni  0.49418389  0.96217257  0.06335124     1.34870
C388        C  0.53759291  0.96696734  0.92811630     0.85710
O389        O  0.41897884  0.96107658  0.01288860    -0.78350
O390        O  0.44915317  0.93791190  0.05715762    -0.88630
C391        C  0.42303693  0.01030007  0.93208230     0.85280
O392        O  0.47040798  0.00392263  0.07692855    -0.66830
O393        O  0.53824537  0.06024142  0.94288292    -0.86120
C394        C  0.45661944  0.02942569  0.06162055     0.86110
C395        C  0.42213112  0.93880065  0.03666410     1.07680
H396        H  0.49068612  0.04213492  0.98898164     0.39480
O397        O  0.49388811  0.02053426  0.97766833    -1.08770
O398        O  0.54282211  0.96504244  0.96051664    -0.65430
Ni399      Ni  0.53496093  0.99825827  0.99858912     1.26350
O400        O  0.44637704  0.02754236  0.03042232    -0.65650
O401        O  0.57092282  0.03049308  0.98144315    -0.77950
C402        C  0.57055635  0.97759784  0.05827316     0.85500
O403        O  0.57403213  0.97619530  0.02559213    -0.65120
Ni404      Ni  0.49726546  0.03218118  0.93152272     1.27450
Ni405      Ni  0.45571673  0.99217730  0.99436824     1.26060
H406        H  0.50035912  0.94797186  0.00585444     0.40040
C407        C  0.25115552  0.69916416  0.24982145     0.04110
C408        C  0.26690429  0.71415434  0.22076054    -0.12040
C409        C  0.25245571  0.74530816  0.20949508     0.01610
C410        C  0.22027134  0.75945853  0.22501765    -0.10570
C411        C  0.20577199  0.74528081  0.25461479     0.04100
C412        C  0.21997851  0.71439313  0.26599183    -0.09990
H413        H  0.29245482  0.70365084  0.20940507     0.09690
H414        H  0.21007343  0.78447086  0.21762663     0.07220
H415        H  0.21055659  0.70511154  0.29066034     0.07070
O416        O  0.36447825  0.60983439  0.41923282    -0.73450
O417        O  0.32009180  0.53684915  0.37210705    -0.73480
O418        O  0.37743704  0.54494611  0.42462748    -0.73530
O419        O  0.31380824  0.60368690  0.37088638    -0.73580
O420        O  0.35987348  0.60647023  0.33189888    -0.73520
O421        O  0.41851101  0.54384120  0.38167292    -0.73490
O422        O  0.36219421  0.54055862  0.33024213    -0.73470
O423        O  0.40995959  0.61004733  0.37943281    -0.73530
Ni424      Ni  0.34224171  0.57282295  0.39827610     1.25410
Ni425      Ni  0.38930550  0.57444057  0.35444301     1.25360
C426        C  0.39442931  0.62156024  0.40697680     0.88730
C427        C  0.32911654  0.53332368  0.34017446     0.88660
C428        C  0.41148069  0.54185538  0.41386062     0.88690
C429        C  0.32769261  0.61544303  0.34307217     0.88860
C430        C  0.53392692  0.96969585  0.24129316     0.04110
C431        C  0.52797432  0.99785057  0.26276129    -0.12040
C432        C  0.49467037  0.01652056  0.26163555     0.01610
C433        C  0.46674380  0.00631941  0.24074128    -0.10570
C434        C  0.47294794  0.97834206  0.22016152     0.04100
C435        C  0.50695760  0.96108494  0.21885926    -0.09990
H436        H  0.54819503  0.00434537  0.28123203     0.09690
H437        H  0.43992017  0.01954515  0.24117267     0.07220
H438        H  0.51137902  0.93945198  0.20209360     0.07070
O439        O  0.63294216  0.90374255  0.33851287    -0.73450
O440        O  0.68789042  0.86304115  0.41020789    -0.73480
O441        O  0.69843453  0.91485836  0.36106640    -0.73530
O442        O  0.62224974  0.85560707  0.38532070    -0.73580
O443        O  0.64698585  0.81524516  0.35107404    -0.73520
O444        O  0.72031975  0.87837777  0.32199458    -0.73490
O445        O  0.71304532  0.82497051  0.37399518    -0.73470
O446        O  0.65430675  0.86307218  0.30282995    -0.73530
Ni447      Ni  0.66006226  0.88569265  0.37525598     1.25410
Ni448      Ni  0.68543010  0.84403061  0.33628457     1.25360
C449        C  0.63499645  0.89000951  0.30907317     0.88730
C450        C  0.70408689  0.83401587  0.40471697     0.88660
C451        C  0.71536882  0.90914049  0.33244170     0.88690
C452        C  0.62247179  0.82573692  0.37313951     0.88860
O453        O  0.31170553  0.87074714  0.12149353    -0.73450
O454        O  0.35967781  0.92061339  0.04940217    -0.73480
O455        O  0.31023498  0.86518583  0.05512762    -0.73530
O456        O  0.35692771  0.92257841  0.11657211    -0.73580
O457        O  0.40587183  0.88617809  0.11675937    -0.73520
O458        O  0.35656332  0.82692266  0.05816979    -0.73490
O459        O  0.40599155  0.88208719  0.04954866    -0.73470
O460        O  0.36109109  0.83518332  0.12362428    -0.73530
Ni461      Ni  0.33284285  0.89618332  0.08488563     1.25410
Ni462      Ni  0.38430998  0.85636633  0.08623714     1.25360
C463        C  0.32855680  0.84453346  0.13372592     0.88730
C464        C  0.39387506  0.91231719  0.04305230     0.88660
C465        C  0.32202793  0.83412849  0.05445054     0.88690
C466        C  0.38836582  0.91289346  0.12743793     0.88860
C467        C  0.22826836  0.98365864  0.48651045     0.04110
C468        C  0.23662588  0.01611570  0.47545461    -0.12040
C469        C  0.26788254  0.03141818  0.48753604     0.01610
C470        C  0.28821752  0.01604554  0.51334743    -0.10570
C471        C  0.27920456  0.98405668  0.52493619     0.04100
C472        C  0.24937727  0.96790527  0.51148913    -0.09990
H473        H  0.22151475  0.02777019  0.45477503     0.09690
H474        H  0.31296737  0.02746761  0.52211943     0.07220
H475        H  0.24442335  0.94191846  0.51861985     0.07070
C476        C  0.53681267  0.74826892  0.46343692     0.04110
C477        C  0.51433412  0.72280629  0.45326038    -0.12040
C478        C  0.48329576  0.71485386  0.47316349     0.01610
C479        C  0.47663584  0.73070760  0.50470935    -0.10570
C480        C  0.50098276  0.75479025  0.51620920     0.04100
C481        C  0.53181310  0.76261853  0.49573029    -0.09990
H482        H  0.51868655  0.71187422  0.42807765     0.09690
H483        H  0.45118404  0.72616687  0.51890289     0.07220
H484        H  0.54998512  0.78221021  0.50332114     0.07070
O485        O  0.35422244  0.87677911  0.62565505    -0.73450
O486        O  0.40182245  0.83157758  0.69962363    -0.73480
O487        O  0.34515419  0.88486891  0.69146971    -0.73530
O488        O  0.40655151  0.82766639  0.63315109    -0.73580
O489        O  0.45023271  0.86604661  0.63276724    -0.73520
O490        O  0.38611851  0.92511929  0.68890351    -0.73490
O491        O  0.44353857  0.87112087  0.70002970    -0.73470
O492        O  0.39799469  0.91514641  0.62349724    -0.73530
Ni493      Ni  0.37536131  0.85392586  0.66323123     1.25410
Ni494      Ni  0.42114765  0.89580725  0.66212426     1.25360
C495        C  0.36788793  0.90356321  0.61308097     0.88730
C496        C  0.43470189  0.84036116  0.70603497     0.88660
C497        C  0.35224088  0.91651023  0.69296985     0.88690
C498        C  0.43816078  0.83770221  0.62309490     0.88860
O499        O  0.38892698  0.12404075  0.32780647    -0.73450
O500        O  0.33013782  0.19560942  0.37078557    -0.73480
O501        O  0.38720990  0.18893980  0.31635862    -0.73530
O502        O  0.33601012  0.12984564  0.37691557    -0.73580
O503        O  0.37789375  0.13639949  0.41690727    -0.73520
O504        O  0.43095174  0.19256565  0.35460776    -0.73490
O505        O  0.37534581  0.20203377  0.40699000    -0.73470
O506        O  0.43098985  0.12780575  0.36815128    -0.73530
Ni507      Ni  0.35882109  0.16013832  0.34643861     1.25410
Ni508      Ni  0.40530866  0.16556392  0.38801558     1.25360
C509        C  0.41970772  0.11485359  0.34085434     0.88730
C510        C  0.34086776  0.20437482  0.40036120     0.88660
C511        C  0.42111662  0.19348412  0.32336237     0.88690
C512        C  0.34848869  0.12348379  0.40643281     0.88860
O513        O  0.12030557  0.81899361  0.38272812    -0.73450
O514        O  0.05165228  0.87758605  0.43280784    -0.73480
O515        O  0.04822635  0.82287397  0.38276665    -0.73530
O516        O  0.12380341  0.86964605  0.42849642    -0.73580
O517        O  0.12543831  0.90732731  0.38602547    -0.73520
O518        O  0.05022582  0.86140434  0.34151641    -0.73490
O519        O  0.05351557  0.91471433  0.39031614    -0.73470
O520        O  0.12238925  0.85746455  0.34085370    -0.73530
Ni521      Ni  0.08515199  0.84590657  0.40840146     1.25410
Ni522      Ni  0.08725799  0.88659865  0.36321641     1.25360
C523        C  0.13180822  0.82872903  0.35338097     0.88730
C524        C  0.04846817  0.90831572  0.42217867     0.88660
C525        C  0.04394391  0.83109002  0.35129132     0.88690
C526        C  0.13644501  0.89639260  0.41472530     0.88860
O527        O  0.80035169  0.03829130  0.16893956    -0.79910
O528        O  0.72911205  0.93736497  0.27804190    -0.64600
O529        O  0.74823873  0.01272804  0.21619094    -1.11210
C530        C  0.80893185  0.05074181  0.31066309     1.06970
O531        O  0.72172101  0.96808982  0.32522200    -0.77810
O532        O  0.70512601  0.03292174  0.29658028    -0.65390
Ni533      Ni  0.76989106  0.99994413  0.17268043     1.34870
C534        C  0.70741525  0.05856914  0.27651131     0.85710
O535        O  0.70069098  0.96015010  0.21402417    -0.78350
O536        O  0.73886037  0.96220368  0.16945414    -0.88630
C537        C  0.72433379  0.93941806  0.31055907     0.85280
O538        O  0.81008388  0.97266094  0.19177059    -0.66830
O539        O  0.77527578  0.04933305  0.32046886    -0.86120
C540        C  0.80632044  0.94645141  0.21041595     0.86110
C541        C  0.70611598  0.96070729  0.18158707     1.07680
H542        H  0.79239796  0.98201860  0.27909539     0.39480
O543        O  0.77030744  0.99596261  0.27568031    -1.08770
O544        O  0.73862236  0.06467743  0.26181740    -0.65430
Ni545      Ni  0.78070838  0.03424428  0.24611369     1.26350
O546        O  0.77670777  0.94291882  0.22842137    -0.65650
O547        O  0.81623936  0.05046845  0.27855995    -0.77950
C548        C  0.79683148  0.06766428  0.18188000     0.85500
O549        O  0.78960964  0.07140321  0.21386070    -0.65120
Ni550      Ni  0.74731448  0.00943504  0.31863475     1.27450
Ni551      Ni  0.73729403  0.97487997  0.24589637     1.26060
H552        H  0.72608527  0.02654280  0.21275108     0.40040
O553        O  0.72826791  0.17494786  0.96620768    -0.79910
O554        O  0.83074261  0.28609793  0.03011833    -0.64600
O555        O  0.75197256  0.22521362  0.01010807    -1.11210
C556        C  0.71105559  0.31538474  0.94300492     1.06970
O557        O  0.79801451  0.33452729  0.02508789    -0.77810
O558        O  0.72815778  0.30797378  0.03935363    -0.65390
Ni559      Ni  0.76904588  0.18133024  0.99472681     1.34870
C560        C  0.70014581  0.28928507  0.03774903     0.85710
O561        O  0.80627075  0.22520887  0.05801368    -0.78350
O562        O  0.80927814  0.18095862  0.02490515    -0.88630
C563        C  0.82798101  0.31843200  0.03171303     0.85280
O564        O  0.79713802  0.20017782  0.95654449    -0.66830
O565        O  0.71132636  0.32722583  0.97297478    -0.86120
C566        C  0.82396219  0.22011692  0.95814834     0.86110
C567        C  0.80760160  0.19308459  0.05481544     1.07680
H568        H  0.78675307  0.28413262  0.96529837     0.39480
O569        O  0.77041226  0.28251783  0.98506289    -1.08770
O570        O  0.69460176  0.27230793  0.01076203    -0.65430
Ni571      Ni  0.72985335  0.25289851  0.97597700     1.26350
O572        O  0.82881556  0.23643370  0.98580767    -0.65650
O573        O  0.71333583  0.28316518  0.93926087    -0.77950
C574        C  0.69566939  0.18781588  0.96759202     0.85500
O575        O  0.69036810  0.22018279  0.96957348    -0.65120
Ni576      Ni  0.75427485  0.32690901  0.00005903     1.27450
Ni577      Ni  0.79171986  0.25477745  0.02027631     1.26060
H578        H  0.73557147  0.22295995  0.02981427     0.40040
C579        C  0.27766050  0.26169205  0.71731337     0.04110
C580        C  0.24190445  0.27438336  0.72455184    -0.12040
C581        C  0.22018499  0.25889180  0.74926706     0.01610
C582        C  0.23097311  0.22726150  0.76204502    -0.10570
C583        C  0.26669033  0.21411061  0.75487512     0.04100
C584        C  0.29016030  0.23151981  0.73252315    -0.09990
H585        H  0.23279085  0.29867338  0.71430107     0.09690
H586        H  0.21346766  0.21533310  0.78107656     0.07220
H587        H  0.31875523  0.22289990  0.72880980     0.07070
C588        C  0.53314619  0.23122467  0.96680971     0.04110
C589        C  0.51668228  0.20174548  0.95685867    -0.12040
C590        C  0.48365539  0.19225892  0.97294373     0.01610
C591        C  0.46923358  0.21033567  0.00121656    -0.10570
C592        C  0.48624429  0.23956867  0.01167347     0.04100
C593        C  0.51790513  0.24991498  0.99424592    -0.09990
H594        H  0.52760506  0.18795377  0.93470583     0.09690
H595        H  0.44338457  0.20319481  0.01331055     0.07220
H596        H  0.52898924  0.27419073  0.00031076     0.07070
C597        C  0.48994288  0.53877557  0.75888138     0.04110
C598        C  0.47537017  0.52875689  0.72782452    -0.12040
C599        C  0.48938609  0.49922131  0.71160466     0.01610
C600        C  0.51818845  0.48044983  0.72640587    -0.10570
C601        C  0.53293057  0.49070911  0.75665096     0.04100
C602        C  0.52025009  0.52069097  0.77204547    -0.09990
H603        H  0.45149432  0.54226908  0.71779887     0.09690
H604        H  0.52658801  0.45567962  0.71648373     0.07220
H605        H  0.53141199  0.52785618  0.79620302     0.07070
C606        C  0.26640227  0.48677191  0.03137882     0.04110
C607        C  0.23992001  0.47139786  0.01211910    -0.12040
C608        C  0.22696941  0.48716234  0.98281750     0.01610
C609        C  0.23952529  0.51858573  0.97324393    -0.10570
C610        C  0.26520606  0.53473332  0.99268508     0.04100
C611        C  0.27777985  0.51924072  0.02256982    -0.09990
H612        H  0.23182138  0.44590535  0.01811235     0.09690
H613        H  0.23187009  0.52886896  0.94869500     0.07220
H614        H  0.29869668  0.53097926  0.03722718     0.07070
O615        O  0.37555533  0.64381884  0.83342754    -0.73450
O616        O  0.32093659  0.71179343  0.88633146    -0.73480
O617        O  0.37964417  0.70906196  0.83083683    -0.73530
O618        O  0.32373069  0.64492274  0.88438158    -0.73580
O619        O  0.36942633  0.64195380  0.92134749    -0.73520
O620        O  0.42041228  0.70957238  0.87178728    -0.73490
O621        O  0.36272185  0.70755278  0.92637591    -0.73470
O622        O  0.42064857  0.64330677  0.87118115    -0.73530
Ni623      Ni  0.34816420  0.67836984  0.85736784     1.25410
Ni624      Ni  0.39487629  0.67642526  0.89904495     1.25360
C625        C  0.40707232  0.63306033  0.84346580     0.88730
C626        C  0.32884625  0.71375358  0.91813379     0.88660
C627        C  0.41327706  0.71281738  0.83994486     0.88690
C628        C  0.33844004  0.63239832  0.91119824     0.88860
O629        O  0.61292074  0.40259229  0.86332296    -0.73450
O630        O  0.68664699  0.36826177  0.92211326    -0.73480
O631        O  0.68068668  0.42102602  0.87266016    -0.73530
O632        O  0.61916005  0.35230574  0.90922966    -0.73580
O633        O  0.63763160  0.31787972  0.86640401    -0.73520
O634        O  0.70280706  0.38529717  0.83271598    -0.73490
O635        O  0.70515560  0.33054089  0.88285302    -0.73470
O636        O  0.63492047  0.36935606  0.82083321    -0.73530
Ni637      Ni  0.64960416  0.38744806  0.89332014     1.25410
Ni638      Ni  0.67161370  0.34954796  0.84926176     1.25360
C639        C  0.61280411  0.39286871  0.83237525     0.88730
C640        C  0.70164914  0.33933771  0.91439048     0.88660
C641        C  0.69671642  0.41580766  0.84335783     0.88690
C642        C  0.61918859  0.32370698  0.89410411     0.88860
O643        O  0.34346777  0.36841346  0.61359217    -0.73450
O644        O  0.39434573  0.41855127  0.54254621    -0.73480
O645        O  0.34124484  0.36119890  0.54724072    -0.73530
O646        O  0.38833849  0.42028949  0.60881916    -0.73580
O647        O  0.43806975  0.38522379  0.60932934    -0.73520
O648        O  0.38889577  0.32475850  0.54943930    -0.73490
O649        O  0.44052102  0.38024575  0.54205488    -0.73470
O650        O  0.39305298  0.33313121  0.61540070    -0.73530
Ni651      Ni  0.36501470  0.39338322  0.57690890     1.25410
Ni652      Ni  0.41686492  0.35449971  0.57834031     1.25360
C653        C  0.36087369  0.34277225  0.62625083     0.88730
C654        C  0.42927382  0.41106417  0.53725730     0.88660
C655        C  0.35401632  0.33042155  0.54451664     0.88690
C656        C  0.42047430  0.41237035  0.61932055     0.88860
O657        O  0.33467942  0.36872685  0.12791212    -0.73450
O658        O  0.39351023  0.31208190  0.18752614    -0.73480
O659        O  0.33602213  0.36610252  0.19442690    -0.73530
O660        O  0.38637937  0.31880137  0.12148396    -0.73580
O661        O  0.43264763  0.35450207  0.12294965    -0.73520
O662        O  0.37673634  0.40656670  0.19123605    -0.73490
O663        O  0.43454933  0.35216227  0.19048753    -0.73470
O664        O  0.38061233  0.40481334  0.12491292    -0.73530
Ni665      Ni  0.36111086  0.33994669  0.15868858     1.25410
Ni666      Ni  0.40789061  0.38082835  0.15818105     1.25360
C667        C  0.34859086  0.39595109  0.11648151     0.88730
C668        C  0.42677571  0.32072933  0.19329857     0.88660
C669        C  0.34338930  0.39749981  0.19761455     0.88690
C670        C  0.41746282  0.32885598  0.11022429     0.88860
O671        O  0.36316170  0.09308179  0.91374262    -0.73450
O672        O  0.30905567  0.03249697  0.85957629    -0.73480
O673        O  0.36041442  0.02703240  0.91527496    -0.73530
O674        O  0.31555220  0.09851880  0.86232342    -0.73580
O675        O  0.36336953  0.09555254  0.82501077    -0.73520
O676        O  0.40474743  0.02152375  0.87509055    -0.73490
O677        O  0.35469427  0.03080464  0.82040495    -0.73470
O678        O  0.41041059  0.08788971  0.87586187    -0.73530
Ni679      Ni  0.33512882  0.06219890  0.88913276     1.25410
Ni680      Ni  0.38505009  0.05808197  0.84785131     1.25360
C681        C  0.39558283  0.10043450  0.90317195     0.88730
C682        C  0.32020137  0.02904836  0.82823103     0.88660
C683        C  0.39378559  0.01812371  0.90636088     0.88690
C684        C  0.33225222  0.10864730  0.83516148     0.88860
O685        O  0.12342459  0.42586706  0.86777744    -0.73450
O686        O  0.04548700  0.37483816  0.83322784    -0.73480
O687        O  0.05232437  0.42804164  0.88199688    -0.73530
O688        O  0.11701697  0.37662580  0.82116354    -0.73580
O689        O  0.12591448  0.33788493  0.86201975    -0.73520
O690        O  0.05976182  0.38791223  0.92121801    -0.73490
O691        O  0.05447432  0.33480327  0.87233446    -0.73470
O692        O  0.13113702  0.38640905  0.90819054    -0.73530
Ni693      Ni  0.08353702  0.40276213  0.84955601     1.25410
Ni694      Ni  0.09243531  0.36037380  0.89256655     1.25360
C695        C  0.13941404  0.41440996  0.89423016     0.88730
C696        C  0.04417205  0.34365935  0.84258403     0.88660
C697        C  0.05212559  0.41889129  0.91337203     0.88690
C698        C  0.13204122  0.34902448  0.83190452     0.88860
C699        C  0.72839523  0.75028754  0.29647878     0.04110
C700        C  0.76334309  0.73611383  0.28788862    -0.12040
C701        C  0.78096268  0.74483056  0.25735844     0.01610
C702        C  0.76582636  0.77044241  0.23710496    -0.10570
C703        C  0.73169384  0.78552106  0.24612589     0.04100
C704        C  0.71303174  0.77595945  0.27614807    -0.09990
H705        H  0.77445395  0.71479978  0.30227932     0.09690
H706        H  0.77876298  0.77639103  0.21264651     0.07220
H707        H  0.68545454  0.78634503  0.28206356     0.07070
O708        O  0.62032651  0.66523312  0.39067739    -0.73450
O709        O  0.57070948  0.61201476  0.45914493    -0.73480
O710        O  0.62646686  0.66725692  0.45687992    -0.73530
O711        O  0.57267188  0.61486815  0.39198438    -0.73580
O712        O  0.62228118  0.57981180  0.38686927    -0.73520
O713        O  0.66908335  0.62611769  0.45812946    -0.73490
O714        O  0.61430178  0.57167267  0.45259222    -0.73470
O715        O  0.66994682  0.62998452  0.39154187    -0.73530
Ni716      Ni  0.59572530  0.64125580  0.42574582     1.25410
Ni717      Ni  0.64560405  0.60042962  0.42311476     1.25360
C718        C  0.65327024  0.65697981  0.38087715     0.88730
C719        C  0.57995175  0.58011628  0.45959632     0.88660
C720        C  0.66059761  0.65789937  0.46148075     0.88690
C721        C  0.58980625  0.58911427  0.37828927     0.88860
C722        C  0.78055334  0.52416402  0.01612554     0.04110
C723        C  0.76731818  0.54080312  0.98732769    -0.12040
C724        C  0.74243243  0.52517219  0.96654878     0.01610
C725        C  0.73297823  0.49178364  0.97327014    -0.10570
C726        C  0.74506044  0.47555749  0.00285976     0.04100
C727        C  0.76931859  0.49167867  0.02388547    -0.09990
H728        H  0.77442190  0.56677497  0.98251799     0.09690
H729        H  0.71350974  0.47965021  0.95727260     0.07220
H730        H  0.77692566  0.48022324  0.04793102     0.07070
C731        C  0.46237691  0.74889829  0.01879887     0.04110
C732        C  0.47667159  0.73485173  0.98834088    -0.12040
C733        C  0.50827259  0.74760447  0.97264519     0.01610
C734        C  0.52404554  0.77605077  0.98618772    -0.10570
C735        C  0.50915452  0.79080922  0.01603523     0.04100
C736        C  0.47766571  0.77786984  0.03181266    -0.09990
H737        H  0.46539320  0.71196151  0.97854881     0.09690
H738        H  0.54964582  0.78511447  0.97519297     0.07220
H739        H  0.46729767  0.78831400  0.05590596     0.07070
C740        C  0.52096333  0.50123698  0.28672085     0.04110
C741        C  0.53683336  0.47133528  0.27260377    -0.12040
C742        C  0.52471780  0.45969027  0.24130022     0.01610
C743        C  0.49607431  0.47723073  0.22503287    -0.10570
C744        C  0.47983189  0.50641612  0.23944957     0.04100
C745        C  0.49146585  0.51777106  0.27066658    -0.09990
H746        H  0.56022874  0.45871651  0.28449283     0.09690
H747        H  0.48869813  0.46991738  0.19957672     0.07220
H748        H  0.47983259  0.54148853  0.28068536     0.07070
O749        O  0.37047343  0.61540535  0.17208046    -0.73450
O750        O  0.29402849  0.66410068  0.12467617    -0.73480
O751        O  0.29855986  0.60974507  0.17414629    -0.73530
O752        O  0.36605648  0.66570946  0.12634081    -0.73580
O753        O  0.36882613  0.62877050  0.08321239    -0.73520
O754        O  0.30496208  0.57043050  0.13373846    -0.73490
O755        O  0.29675474  0.62381377  0.08517488    -0.73470
O756        O  0.37624026  0.57823703  0.12918439    -0.73530
Ni757      Ni  0.33136431  0.64008095  0.15094895     1.25410
Ni758      Ni  0.33628804  0.59895302  0.10624797     1.25360
C759        C  0.38522858  0.58868733  0.15839939     0.88730
C760        C  0.28903549  0.65460594  0.09392316     0.88660
C761        C  0.29769637  0.57857981  0.16490460     0.88690
C762        C  0.37755971  0.65673021  0.09657949     0.88860
O763        O  0.58717143  0.36507712  0.11853571    -0.73450
O764        O  0.63757133  0.29973093  0.05939569    -0.73480
O765        O  0.58381761  0.29918015  0.11430672    -0.73530
O766        O  0.63707642  0.36580218  0.06616748    -0.73580
O767        O  0.68400756  0.35928222  0.10151950    -0.73520
O768        O  0.62665615  0.29610449  0.15369597    -0.73490
O769        O  0.68163396  0.29324217  0.09735239    -0.73470
O770        O  0.63439999  0.36133288  0.15391876    -0.73530
Ni771      Ni  0.60976752  0.33207893  0.08821394     1.25410
Ni772      Ni  0.65841021  0.32649370  0.12793063     1.25360
C773        C  0.60261750  0.37340802  0.14608996     0.88730
C774        C  0.67130594  0.29180483  0.06632033     0.88660
C775        C  0.59278792  0.29328005  0.14517780     0.88690
C776        C  0.66921615  0.37323090  0.07552003     0.88860
O777        O  0.62967167  0.59508843  0.86302264    -0.73450
O778        O  0.57493919  0.64247133  0.79384332    -0.73480
O779        O  0.63434527  0.58839909  0.79718709    -0.73530
O780        O  0.57672478  0.64369632  0.86084243    -0.73580
O781        O  0.62022251  0.68233255  0.85862155    -0.73520
O782        O  0.67619171  0.62766344  0.79284365    -0.73490
O783        O  0.61659499  0.68207526  0.79234479    -0.73470
O784        O  0.67345236  0.63327119  0.85934628    -0.73530
Ni785      Ni  0.60229889  0.61599908  0.82785606     1.25410
Ni786      Ni  0.64821055  0.65775582  0.82469270     1.25360
C787        C  0.66035665  0.60641017  0.87237358     0.88730
C788        C  0.58269906  0.67376763  0.78905175     0.88660
C789        C  0.66846814  0.59604264  0.79240832     0.88690
C790        C  0.58982090  0.67141933  0.87081130     0.88860
O791        O  0.88246160  0.62964847  0.18309982    -0.73450
O792        O  0.95427621  0.58009115  0.12829140    -0.73480
O793        O  0.95463322  0.63077890  0.17974831    -0.73530
O794        O  0.88191119  0.58237396  0.13386091    -0.73580
O795        O  0.87840472  0.62415137  0.09540114    -0.73520
O796        O  0.95265863  0.67152670  0.14054989    -0.73490
O797        O  0.95088337  0.62091267  0.08914692    -0.73470
O798        O  0.88071782  0.67128481  0.14437439    -0.73530
Ni799      Ni  0.91901651  0.60421737  0.15768864     1.25410
Ni800      Ni  0.91616062  0.64836859  0.11577487     1.25360
C801        C  0.87121862  0.65896473  0.17327379     0.88730
C802        C  0.95824215  0.58996153  0.09733841     0.88660
C803        C  0.95875373  0.66182283  0.17110473     0.88690
C804        C  0.86869053  0.59544557  0.10682298     0.88860
O805        O  0.57934136  0.89862850  0.11573382    -0.73450
O806        O  0.64204825  0.95384340  0.16732412    -0.73480
O807        O  0.59013822  0.96442315  0.11435757    -0.73530
O808        O  0.62855240  0.88964357  0.16515227    -0.73580
O809        O  0.67512842  0.88312179  0.12669409    -0.73520
O810        O  0.63172925  0.95440916  0.07242639    -0.73490
O811        O  0.68485557  0.94871190  0.12576320    -0.73470
O812        O  0.62559651  0.88856207  0.07768146    -0.73530
Ni813      Ni  0.60833210  0.92754282  0.14194531     1.25410
Ni814      Ni  0.65612742  0.91908986  0.09914573     1.25360
C815        C  0.59286812  0.88366794  0.08907910     0.88730
C816        C  0.67595860  0.95493908  0.15712476     0.88660
C817        C  0.59995063  0.96656925  0.08266470     0.88690
C818        C  0.65885542  0.87510984  0.15475399     0.88860
O819        O  0.76934294  0.54780557  0.67705916    -0.79910
O820        O  0.71160312  0.44194272  0.78865043    -0.64600
O821        O  0.72961783  0.51844756  0.72886010    -1.11210
C822        C  0.80466333  0.54510115  0.82285807     1.06970
O823        O  0.69983414  0.47538034  0.83302514    -0.77810
O824        O  0.69640058  0.54334895  0.81434210    -0.65390
Ni825      Ni  0.74755604  0.50567309  0.68410474     1.34870
C826        C  0.69953708  0.56811697  0.79337495     0.85710
O827        O  0.68223117  0.46385634  0.72470392    -0.78350
O828        O  0.72279729  0.46419289  0.68277725    -0.88630
C829        C  0.70467226  0.44568229  0.82068309     0.85280
O830        O  0.79136555  0.48378080  0.70326740    -0.66830
O831        O  0.77248775  0.54423671  0.83728806    -0.86120
C832        C  0.79003005  0.45670060  0.72117973     0.86110
C833        C  0.68948739  0.46152400  0.69255707     1.07680
H834        H  0.77521371  0.48412380  0.78929434     0.39480
O835        O  0.75376832  0.49911707  0.78679638    -1.08770
O836        O  0.72963740  0.57085250  0.77586800    -0.65430
Ni837      Ni  0.76675426  0.53670840  0.75799761     1.26350
O838        O  0.76038334  0.44987056  0.73817699    -0.65650
O839        O  0.80683739  0.54764022  0.78989909    -0.77950
C840        C  0.77537139  0.57434353  0.69353489     0.85500
O841        O  0.77781576  0.57423701  0.72625220    -0.65120
Ni842      Ni  0.73476081  0.51115489  0.83140247     1.27450
Ni843      Ni  0.71935460  0.47948365  0.75704115     1.26060
H844        H  0.70794740  0.53335515  0.72753593     0.40040
O845        O  0.95740964  0.04425340  0.57266461    -0.79910
O846        O  0.03752404  0.93492482  0.47831325    -0.64600
O847        O  0.01427439  0.01559223  0.53248426    -1.11210
C848        C  0.94847607  0.04617495  0.43278831     1.06970
O849        O  0.05253748  0.96684298  0.43528130    -0.77810
O850        O  0.05225275  0.03524966  0.44239737    -0.65390
Ni851      Ni  0.99326755  0.00815003  0.57727782     1.34870
C852        C  0.04948108  0.06056385  0.46262980     0.85710
O853        O  0.06411327  0.96172634  0.54069259    -0.78350
O854        O  0.03136167  0.97467645  0.58809104    -0.88630
C855        C  0.04453233  0.93784670  0.44642304     0.85280
O856        O  0.95605232  0.97579246  0.56389627    -0.66830
O857        O  0.97797477  0.03471743  0.41788765    -0.86120
C858        C  0.95840455  0.95039726  0.54363253     0.86110
C859        C  0.06235896  0.96725004  0.57306850     1.07680
H860        H  0.97251588  0.98206957  0.47246147     0.39480
O861        O  0.99422830  0.99531801  0.47441623    -1.08770
O862        O  0.02124123  0.06468383  0.48256356    -0.65430
Ni863      Ni  0.98152500  0.03611731  0.49996884     1.26350
O864        O  0.98740648  0.94574496  0.52453639    -0.65650
O865        O  0.94631241  0.05115220  0.46533169    -0.77950
C866        C  0.96458865  0.07337451  0.56109398     0.85500
O867        O  0.97137711  0.07621942  0.52905418    -0.65120
Ni868      Ni  0.01604806  0.00207297  0.42966994     1.27450
Ni869      Ni  0.02718180  0.97505255  0.50693988     1.26060
H870        H  0.03597190  0.02885301  0.53449238     0.40040
C871        C  0.47012850  0.02487131  0.73963308     0.04110
C872        C  0.48727495  0.99688108  0.72356551    -0.12040
C873        C  0.51720688  0.98002403  0.73829174     0.01610
C874        C  0.52944136  0.99040256  0.76978543    -0.10570
C875        C  0.51382079  0.01969489  0.78504193     0.04100
C876        C  0.48320472  0.03617146  0.77051970    -0.09990
H877        H  0.47934680  0.98996425  0.69814874     0.09690
H878        H  0.55321614  0.97749218  0.78077856     0.07220
H879        H  0.47151120  0.05939904  0.78156811     0.07070
C880        C  0.77456965  0.03673910  0.51228397     0.04110
C881        C  0.76314644  0.00560970  0.52450998    -0.12040
C882        C  0.73970870  0.98648068  0.50543070     0.01610
C883        C  0.72789186  0.99836428  0.47394434    -0.10570
C884        C  0.73746685  0.03047403  0.46280864     0.04100
C885        C  0.76161506  0.04916157  0.48153882    -0.09990
H886        H  0.77078496  0.99719377  0.54974390     0.09690
H887        H  0.70913452  0.98374499  0.45941644     0.07220
H888        H  0.76916219  0.07406629  0.47294686     0.07070
C889        C  0.52806613  0.23740602  0.45950749     0.04110
C890        C  0.54433827  0.26509484  0.47453458    -0.12040
C891        C  0.53168714  0.27631765  0.50666068     0.01610
C892        C  0.50035645  0.26272649  0.52171977    -0.10570
C893        C  0.48503528  0.23471114  0.50737990     0.04100
C894        C  0.49861864  0.22202031  0.47638556    -0.09990
H895        H  0.56848316  0.27601863  0.46264558     0.09690
H896        H  0.49031881  0.27164345  0.54655155     0.07220
H897        H  0.48757857  0.19901405  0.46657715     0.07070
O898        O  0.62528731  0.17152721  0.33707139    -0.73450
O899        O  0.68076942  0.11632123  0.27262067    -0.73480
O900        O  0.62055488  0.16919360  0.27091832    -0.73530
O901        O  0.67810447  0.12344004  0.33931303    -0.73580
O902        O  0.63366294  0.08607931  0.34537442    -0.73520
O903        O  0.58064355  0.12811847  0.27280731    -0.73490
O904        O  0.64096278  0.07565889  0.28016228    -0.73470
O905        O  0.58074145  0.13392629  0.33991939    -0.73530
Ni906      Ni  0.65277805  0.14651039  0.30376437     1.25410
Ni907      Ni  0.60733724  0.10441626  0.30867238     1.25360
C908        C  0.59497412  0.16121883  0.34988087     0.88730
C909        C  0.67459324  0.08447453  0.27430445     0.88660
C910        C  0.58713707  0.15956338  0.26768513     0.88690
C911        C  0.66400485  0.09807986  0.35449525     0.88860
O912        O  0.36250119  0.13014509  0.66413679    -0.73450
O913        O  0.29458888  0.18202917  0.61017646    -0.73480
O914        O  0.29060148  0.12811419  0.66080403    -0.73530
O915        O  0.36676901  0.17819006  0.61640369    -0.73580
O916        O  0.37342906  0.13701475  0.57747249    -0.73520
O917        O  0.29515484  0.08888116  0.62059745    -0.73490
O918        O  0.30245230  0.14434170  0.56864511    -0.73470
O919        O  0.36659988  0.08912022  0.62495033    -0.73530
Ni920      Ni  0.32756495  0.15605293  0.63931009     1.25410
Ni921      Ni  0.33350782  0.11342423  0.59620229     1.25360
C922        C  0.37528323  0.10142294  0.65361755     0.88730
C923        C  0.29530859  0.17533585  0.57814556     0.88660
C924        C  0.28842510  0.09682280  0.65201525     0.88690
C925        C  0.38281054  0.16502415  0.58989230     0.88860
C926        C  0.74589607  0.29595018  0.76480243     0.04110
C927        C  0.77859048  0.28427902  0.74849622    -0.12040
C928        C  0.79471322  0.25324885  0.75756894     0.01610
C929        C  0.78134847  0.23608739  0.78625547    -0.10570
C930        C  0.74870343  0.24786504  0.80293286     0.04100
C931        C  0.73163281  0.27847003  0.79277296    -0.09990
H932        H  0.78743114  0.29606019  0.72476147     0.09690
H933        H  0.79334773  0.21140403  0.79251900     0.07220
H934        H  0.70471598  0.28630986  0.80347869     0.07070
O935        O  0.68429591  0.38181357  0.63839061    -0.73450
O936        O  0.62610119  0.43790691  0.57723740    -0.73480
O937        O  0.67443948  0.44779546  0.63483602    -0.73530
O938        O  0.64058651  0.37343720  0.58438942    -0.73580
O939        O  0.59013666  0.37245742  0.61866824    -0.73520
O940        O  0.62930909  0.44237967  0.67368397    -0.73490
O941        O  0.58046969  0.43840378  0.61616812    -0.73470
O942        O  0.63391132  0.37649188  0.67202552    -0.73530
Ni943      Ni  0.65818817  0.41103486  0.60739076     1.25410
Ni944      Ni  0.60652633  0.40803877  0.64635962     1.25360
C945        C  0.66798395  0.37002119  0.66509048     0.88730
C946        C  0.59127316  0.44142468  0.58484040     0.88660
C947        C  0.66234761  0.45121962  0.66589448     0.88690
C948        C  0.60916149  0.36193285  0.59253919     0.88860
O949        O  0.58792249  0.87593985  0.62668605    -0.73450
O950        O  0.64623000  0.81003063  0.57583599    -0.73480
O951        O  0.59104008  0.80984688  0.63036538    -0.73530
O952        O  0.63895653  0.87566531  0.57601663    -0.73580
O953        O  0.68534390  0.87573784  0.61232824    -0.73520
O954        O  0.63243075  0.81443609  0.67056396    -0.73490
O955        O  0.68871675  0.80936136  0.61551829    -0.73470
O956        O  0.63396259  0.88005764  0.66299743    -0.73530
Ni957      Ni  0.61443988  0.84206048  0.60089971     1.25410
Ni958      Ni  0.66188959  0.84420176  0.64183404     1.25360
C959        C  0.60179551  0.88892996  0.65294846     0.88730
C960        C  0.68003405  0.80523861  0.58428896     0.88660
C961        C  0.59936573  0.80809992  0.66197414     0.88690
C962        C  0.67007218  0.88613978  0.58503099     0.88860
O963        O  0.88013110  0.15072268  0.66444622    -0.73450
O964        O  0.95292610  0.09604124  0.61690891    -0.73480
O965        O  0.95212576  0.14735748  0.66754891    -0.73530
O966        O  0.88099555  0.10226030  0.61746658    -0.73580
O967        O  0.88337631  0.14198600  0.57684175    -0.73520
O968        O  0.95575226  0.18756896  0.62815249    -0.73490
O969        O  0.95573709  0.13394777  0.57512374    -0.73470
O970        O  0.88421629  0.19100275  0.62447767    -0.73530
Ni971      Ni  0.91707444  0.12271379  0.64299620     1.25410
Ni972      Ni  0.92084513  0.16506414  0.59944725     1.25360
C973        C  0.87113782  0.17994599  0.65275535     0.88730
C974        C  0.95913220  0.10298088  0.58533292     0.88660
C975        C  0.95784346  0.17823713  0.65961145     0.88690
C976        C  0.87081815  0.11452812  0.58906377     0.88860
O977        O  0.62465140  0.17311060  0.89386851    -0.73450
O978        O  0.57955007  0.11631420  0.96101727    -0.73480
O979        O  0.63129096  0.17183602  0.95962632    -0.73530
O980        O  0.57646939  0.12268093  0.89473095    -0.73580
O981        O  0.62350581  0.08467961  0.88913509    -0.73520
O982        O  0.67638393  0.13228317  0.95494465    -0.73490
O983        O  0.62624257  0.07853368  0.95580131    -0.73470
O984        O  0.67123770  0.13447344  0.88858775    -0.73530
Ni985      Ni  0.60112449  0.14732029  0.92832502     1.25410
Ni986      Ni  0.65103832  0.10612341  0.92250800     1.25360
C987        C  0.65590268  0.16297551  0.88097885     0.88730
C988        C  0.59204968  0.08537221  0.96255065     0.88660
C989        C  0.66573387  0.16302036  0.96165519     0.88690
C990        C  0.59135076  0.09593125  0.88118199     0.88860
C991        C  0.01443476  0.79760874  0.52354209     0.04110
C992        C  0.97966079  0.78908778  0.53608181    -0.12040
C993        C  0.96471706  0.75906756  0.52561673     0.01610
C994        C  0.98291078  0.73976189  0.50007505    -0.10570
C995        C  0.01631161  0.74972782  0.48559464     0.04100
C996        C  0.03206723  0.77906777  0.49713112    -0.09990
H997        H  0.96657573  0.80358137  0.55683669     0.09690
H998        H  0.97313365  0.71502192  0.49385449     0.07220
H999        H  0.05938955  0.78566941  0.48793048     0.07070
O1000       O  0.13410291  0.57389890  0.39318739    -0.73450
O1001       O  0.07454442  0.62042415  0.32783190    -0.73480
O1002       O  0.13330482  0.56786910  0.32720042    -0.73530
O1003       O  0.07961441  0.62277529  0.39456264    -0.73580
O1004       O  0.12396764  0.66060191  0.39151908    -0.73520
O1005       O  0.17095272  0.61036329  0.31929342    -0.73490
O1006       O  0.11377221  0.66234264  0.32581290    -0.73470
O1007       O  0.17740177  0.61231867  0.38570855    -0.73530
Ni1008     Ni  0.10365564  0.59477928  0.36033270     1.25410
Ni1009     Ni  0.14802983  0.63776179  0.35478375     1.25360
C1010       C  0.16595721  0.58497881  0.39899902     0.88730
C1011       C  0.08123091  0.65162501  0.32137305     0.88660
C1012       C  0.16459063  0.57873268  0.31650371     0.88690
C1013       C  0.09340692  0.65049696  0.40390201     0.88860
C1014       C  0.30305143  0.74552568  0.75554101     0.04110
C1015       C  0.28605325  0.73772919  0.78670158    -0.12040
C1016       C  0.25156743  0.75256292  0.79510490     0.01610
C1017       C  0.23733044  0.77959141  0.77629618    -0.10570
C1018       C  0.25484233  0.78829344  0.74563377     0.04100
C1019       C  0.28775453  0.77140019  0.73535689    -0.09990
H1020       H  0.29629183  0.71631201  0.80144181     0.09690
H1021       H  0.21023358  0.79061029  0.78309238     0.07220
H1022       H  0.29898156  0.77575880  0.70987838     0.07070
C1023       C  0.29807060  0.49819412  0.53133028     0.04110
C1024       C  0.28498144  0.51400364  0.50193958    -0.12040
C1025       C  0.25304835  0.50324239  0.48710233     0.01610
C1026       C  0.23543677  0.47510529  0.50031602    -0.10570
C1027       C  0.24889854  0.45879672  0.52923244     0.04100
C1028       C  0.28090231  0.46966596  0.54411144    -0.09990
H1029       H  0.29733987  0.53688187  0.49254733     0.09690
H1030       H  0.20959996  0.46758532  0.48989756     0.07220
H1031       H  0.29034195  0.45796051  0.56745994     0.07070
O1032       O  0.39815989  0.62782867  0.67914697    -0.73450
O1033       O  0.47012730  0.58073702  0.62256955    -0.73480
O1034       O  0.46923926  0.63370566  0.67367122    -0.73530
O1035       O  0.39855989  0.57809538  0.63271737    -0.73580
O1036       O  0.38976261  0.61677975  0.59174231    -0.73520
O1037       O  0.46366372  0.66995669  0.63069250    -0.73490
O1038       O  0.46089592  0.61713529  0.58015456    -0.73470
O1039       O  0.39214661  0.66700735  0.63823506    -0.73530
Ni1040     Ni  0.43502192  0.60360916  0.65339702     1.25410
Ni1041     Ni  0.42691697  0.64422174  0.60864705     1.25360
C1042       C  0.38516713  0.65615871  0.66833007     0.88730
C1043       C  0.46985939  0.58720927  0.59033640     0.88660
C1044       C  0.47161040  0.66386833  0.66200015     0.88690
C1045       C  0.38346668  0.58806336  0.60528760     0.88860
C1046       C  0.01728744  0.47856564  0.73988940     0.04110
C1047       C  0.02796275  0.49412417  0.76972899    -0.12040
C1048       C  0.00980914  0.52425969  0.78011198     0.01610
C1049       C  0.97964015  0.53698413  0.76283516    -0.10570
C1050       C  0.97136595  0.52289391  0.73203269     0.04100
C1051       C  0.98954508  0.49366528  0.72038136    -0.09990
H1052       H  0.05145126  0.48406541  0.78349925     0.09690
H1053       H  0.96552615  0.56038784  0.77113514     0.07220
H1054       H  0.98330534  0.48371208  0.69556429     0.07070
O1055       O  0.17329373  0.35196947  0.63089727    -0.73450
O1056       O  0.10767611  0.29216717  0.67785597    -0.73480
O1057       O  0.16772861  0.28668452  0.62541715    -0.73530
O1058       O  0.12021845  0.35674734  0.67933667    -0.73580
O1059       O  0.07687813  0.36401798  0.64020034    -0.73520
O1060       O  0.12544286  0.29507255  0.58619078    -0.73490
O1061       O  0.06674615  0.29880836  0.63734340    -0.73470
O1062       O  0.12996557  0.36076018  0.59201271    -0.73530
Ni1063     Ni  0.14370140  0.32062813  0.65491994     1.25410
Ni1064     Ni  0.09818185  0.32921366  0.61238974     1.25360
C1065       C  0.16140322  0.36669022  0.60410400     0.88730
C1066       C  0.07374521  0.29294250  0.66866626     0.88660
C1067       C  0.15888850  0.28683386  0.59395154     0.88690
C1068       C  0.09121292  0.37182895  0.66833238     0.88860
O1069       O  0.85944788  0.63557253  0.67891320    -0.73450
O1070       O  0.78774636  0.68857298  0.62977948    -0.73480
O1071       O  0.78737069  0.63410633  0.68158627    -0.73530
O1072       O  0.85930191  0.68557348  0.63304061    -0.73580
O1073       O  0.86074223  0.64815315  0.59037245    -0.73520
O1074       O  0.79006932  0.59693882  0.63915782    -0.73490
O1075       O  0.78827556  0.64833808  0.59049586    -0.73470
O1076       O  0.86179744  0.59818330  0.63599262    -0.73530
Ni1077     Ni  0.82241662  0.66250053  0.65758568     1.25410
Ni1078     Ni  0.82475698  0.62156083  0.61254472     1.25360
C1079       C  0.87200355  0.60826436  0.66480408     0.88730
C1080       C  0.78508078  0.67960146  0.59840027     0.88660
C1081       C  0.78361530  0.60383464  0.67077478     0.88690
C1082       C  0.87111107  0.67556335  0.60366581     0.88860
O1083       O  0.13500836  0.89056878  0.58602357    -0.73450
O1084       O  0.18921326  0.95806676  0.63134774    -0.73480
O1085       O  0.19004789  0.89097058  0.63045723    -0.73530
O1086       O  0.12859354  0.95595718  0.58286466    -0.73580
O1087       O  0.09015860  0.95829145  0.62776300    -0.73520
O1088       O  0.14706635  0.88970550  0.67248985    -0.73490
O1089       O  0.14964109  0.95597628  0.67552494    -0.73470
O1090       O  0.09257217  0.89209541  0.62867665    -0.73530
Ni1091     Ni  0.16241678  0.92470276  0.60611801     1.25410
Ni1092     Ni  0.11840935  0.92482088  0.65271149     1.25360
C1093       C  0.10464844  0.88114768  0.59971572     0.88730
C1094       C  0.18227488  0.96176836  0.66355727     0.88660
C1095       C  0.17742442  0.87879340  0.65853289     0.88690
C1096       C  0.09559297  0.96108917  0.59541528     0.88860
O1097       O  0.11527012  0.59469716  0.87471152    -0.73450
O1098       O  0.17274495  0.63573915  0.94031322    -0.73480
O1099       O  0.11689623  0.58658594  0.94000608    -0.73530
O1100       O  0.16667164  0.64129267  0.87415277    -0.73580
O1101       O  0.12204971  0.68177389  0.88047503    -0.73520
O1102       O  0.07543779  0.62892475  0.94866428    -0.73490
O1103       O  0.13115224  0.67840523  0.94582177    -0.73470
O1104       O  0.07046105  0.63483410  0.88260817    -0.73530
Ni1105     Ni  0.14463546  0.61307917  0.90759987     1.25410
Ni1106     Ni  0.09811370  0.65744052  0.91527105     1.25360
C1107       C  0.08320334  0.60728543  0.86909971     0.88730
C1108       C  0.16461426  0.66670690  0.94767486     0.88660
C1109       C  0.08422407  0.59717694  0.94939145     0.88690
C1110       C  0.15257799  0.67055902  0.86720589     0.88860
C1111       C  0.72967635  0.27895232  0.24626849     0.04110
C1112       C  0.76037970  0.28456202  0.22542863    -0.12040
C1113       C  0.79331573  0.26620409  0.23070178     0.01610
C1114       C  0.79519549  0.24092992  0.25509945    -0.10570
C1115       C  0.76380489  0.23460772  0.27521740     0.04100
C1116       C  0.73135112  0.25377281  0.27141583    -0.09990
H1117       H  0.75930436  0.30444315  0.20633901     0.09690
H1118       H  0.82094104  0.22664569  0.25877618     0.07220
H1119       H  0.70795058  0.24963895  0.28860005     0.07070
O1120       O  0.61725435  0.33767418  0.33737207    -0.73450
O1121       O  0.55298817  0.37480802  0.40880698    -0.73480
O1122       O  0.54787833  0.32744395  0.35363088    -0.73530
O1123       O  0.62197455  0.38100059  0.38966875    -0.73580
O1124       O  0.60328876  0.42488217  0.35752783    -0.73520
O1125       O  0.53580779  0.36612953  0.31402682    -0.73490
O1126       O  0.53332742  0.41335863  0.37163279    -0.73470
O1127       O  0.60426121  0.38237938  0.30410780    -0.73530
Ni1128     Ni  0.58503529  0.35350751  0.37368601     1.25410
Ni1129     Ni  0.56767195  0.39831197  0.33571247     1.25360
C1130       C  0.62105959  0.35413164  0.30938050     0.88730
C1131       C  0.53900402  0.40447151  0.40273954     0.88660
C1132       C  0.53731615  0.33486293  0.32345700     0.88690
C1133       C  0.62353915  0.41190742  0.38078140     0.88860
C1134       C  0.75479315  0.48039525  0.51725840     0.04110
C1135       C  0.72873364  0.46627666  0.49649094    -0.12040
C1136       C  0.72063839  0.48094228  0.46495630     0.01610
C1137       C  0.73798294  0.51011686  0.45468150    -0.10570
C1138       C  0.76417398  0.52422043  0.47503067     0.04100
C1139       C  0.77285248  0.50930427  0.50616376    -0.09990
H1140       H  0.71520208  0.44357658  0.50463779     0.09690
H1141       H  0.73150384  0.52167364  0.43041120     0.07220
H1142       H  0.79401166  0.51994031  0.52137583     0.07070
C1143       C  0.98050033  0.52418950  0.27634902     0.04110
C1144       C  0.01559132  0.51688277  0.28873125    -0.12040
C1145       C  0.03447132  0.48700484  0.27944630     0.01610
C1146       C  0.02023015  0.46630587  0.25470652    -0.10570
C1147       C  0.98656154  0.47483807  0.24022453     0.04100
C1148       C  0.96612185  0.50369748  0.25138880    -0.09990
H1149       H  0.02674561  0.53301457  0.30790432     0.09690
H1150       H  0.03473251  0.44285378  0.24739274     0.07220
H1151       H  0.93888024  0.50941846  0.24166663     0.07070
C1152       C  0.01732052  0.26716371  0.49530350     0.04110
C1153       C  0.00396060  0.23636951  0.48465846    -0.12040
C1154       C  0.97450467  0.22195910  0.50268753     0.01610
C1155       C  0.96059765  0.23684736  0.53271697    -0.10570
C1156       C  0.97251397  0.26837050  0.54213412     0.04100
C1157       C  0.00109574  0.28331320  0.52379470    -0.09990
H1158       H  0.01469480  0.22494535  0.46116032     0.09690
H1159       H  0.93769776  0.22577491  0.54662246     0.07220
H1160       H  0.00887062  0.30867263  0.53022664     0.07070
O1161       O  0.14506464  0.41438178  0.38433354    -0.73450
O1162       O  0.21136183  0.35116648  0.42782924    -0.73480
O1163       O  0.21655168  0.40705377  0.37769029    -0.73530
O1164       O  0.13999315  0.36401360  0.42995128    -0.73580
O1165       O  0.13355595  0.32735402  0.38752996    -0.73520
O1166       O  0.21155955  0.36881731  0.33704030    -0.73490
O1167       O  0.20550448  0.31426971  0.38596554    -0.73470
O1168       O  0.14000754  0.37745051  0.34182800    -0.73530
Ni1169     Ni  0.17942265  0.38535444  0.40657104     1.25410
Ni1170     Ni  0.17317962  0.34549586  0.36156972     1.25360
C1171       C  0.13252592  0.40623453  0.35555430     0.88730
C1172       C  0.21178936  0.32022801  0.41738480     0.88660
C1173       C  0.21876569  0.39915955  0.34583657     0.88690
C1174       C  0.12410682  0.33896682  0.41700236     0.88860
O1175       O  0.90220879  0.38509261  0.63753922    -0.73450
O1176       O  0.85326877  0.43945692  0.70650324    -0.73480
O1177       O  0.91205576  0.38765624  0.70285993    -0.73530
O1178       O  0.84723829  0.43258663  0.64054337    -0.73580
O1179       O  0.80567647  0.39295065  0.64995301    -0.73520
O1180       O  0.87281253  0.34621869  0.70945133    -0.73490
O1181       O  0.81389860  0.39877156  0.71647173    -0.73470
O1182       O  0.85999660  0.34559238  0.64478100    -0.73530
Ni1183     Ni  0.88022544  0.41275707  0.67226176     1.25410
Ni1184     Ni  0.83650508  0.36956399  0.68134626     1.25360
C1185       C  0.88936846  0.35642519  0.63048208     0.88730
C1186       C  0.82119058  0.43034472  0.71684272     0.88660
C1187       C  0.90615043  0.35635925  0.70955345     0.88690
C1188       C  0.81636649  0.41949449  0.63452824     0.88860
O1189       O  0.85399135  0.35713823  0.12290006    -0.73450
O1190       O  0.90130475  0.41993829  0.06357414    -0.73480
O1191       O  0.84857878  0.36890959  0.05636820    -0.73530
O1192       O  0.90131755  0.40595395  0.12809554    -0.73580
O1193       O  0.94899907  0.36931185  0.11807540    -0.73520
O1194       O  0.89163057  0.32779344  0.04866320    -0.73490
O1195       O  0.94504957  0.38033331  0.05200946    -0.73470
O1196       O  0.90121783  0.31960232  0.11438447    -0.73530
Ni1197     Ni  0.87438471  0.38924638  0.09235306     1.25410
Ni1198     Ni  0.92342283  0.34786324  0.08208964     1.25360
C1199       C  0.87151136  0.32937741  0.12996869     0.88730
C1200       C  0.93489755  0.41167815  0.05490552     0.88660
C1201       C  0.85813304  0.33931156  0.04528623     0.88690
C1202       C  0.93374154  0.39456532  0.13428523     0.88860
O1203       O  0.86858243  0.64152316  0.42259252    -0.73450
O1204       O  0.92226975  0.71081653  0.37752822    -0.73480
O1205       O  0.86205259  0.70690922  0.42965410    -0.73530
O1206       O  0.92109525  0.64400605  0.37419578    -0.73580
O1207       O  0.87713345  0.64626831  0.33533548    -0.73520
O1208       O  0.82204628  0.71292232  0.38823654    -0.73490
O1209       O  0.88235089  0.71181262  0.33582218    -0.73470
O1210       O  0.82427067  0.64631691  0.38424673    -0.73530
Ni1211     Ni  0.89515285  0.67668005  0.40247865     1.25410
Ni1212     Ni  0.84982097  0.68043255  0.35946632     1.25360
C1213       C  0.83820926  0.63234069  0.41070468     0.88730
C1214       C  0.91581907  0.71482629  0.34569316     0.88660
C1215       C  0.82855396  0.71317885  0.42028175     0.88690
C1216       C  0.90730661  0.63367638  0.34654650     0.88860
O1217       O  0.85681937  0.13356256  0.34375109    -0.73450
O1218       O  0.92425881  0.06726065  0.37984099    -0.73480
O1219       O  0.86868412  0.06978223  0.32830386    -0.73530
O1220       O  0.90986444  0.13111154  0.39060231    -0.73580
O1221       O  0.86668124  0.11944581  0.43045478    -0.73520
O1222       O  0.82819000  0.05556579  0.36881181    -0.73490
O1223       O  0.88339874  0.05568223  0.42111967    -0.73470
O1224       O  0.81427128  0.11987759  0.38339670    -0.73530
Ni1225     Ni  0.89156095  0.10037050  0.35907015     1.25410
Ni1226     Ni  0.84660603  0.08646546  0.40222459     1.25360
C1227       C  0.82436805  0.13682093  0.35735716     0.88730
C1228       C  0.91709939  0.05630668  0.41012720     0.88660
C1229       C  0.83729972  0.05794529  0.33695706     0.88690
C1230       C  0.89572220  0.13447238  0.42061297     0.88860
O1231       O  0.04534253  0.32642068  0.78522805    -0.79910
O1232       O  0.96558230  0.23455794  0.68517679    -0.64600
O1233       O  0.98690689  0.29022874  0.76367006    -1.11210
C1234       C  0.05423352  0.19040881  0.79377100     1.06970
O1235       O  0.95285801  0.19209542  0.71861678    -0.77810
O1236       O  0.94908018  0.20669631  0.78706606    -0.65390
Ni1237     Ni  0.00770768  0.33329377  0.75353757     1.34870
C1238       C  0.95319045  0.22568550  0.81290226     0.85710
O1239       O  0.93787568  0.29986012  0.71073391    -0.78350
O1240       O  0.96870999  0.34599084  0.72343590    -0.88630
C1241       C  0.96068465  0.20287311  0.68885831     0.85280
O1242       O  0.04381526  0.31694913  0.71893523    -0.66830
O1243       O  0.02267668  0.17836067  0.78887643    -0.86120
C1244       C  0.04239403  0.29508402  0.69528816     0.86110
C1245       C  0.93891394  0.33220930  0.71567693     1.07680
H1246       H  0.02963383  0.22713023  0.72914710     0.39480
O1247       O  0.00804562  0.23100789  0.74388088    -1.08770
O1248       O  0.98266543  0.24207797  0.81555874    -0.65430
Ni1249     Ni  0.02103634  0.25733114  0.78288411     1.26350
O1250       O  0.01393521  0.27761676  0.69244444    -0.65650
O1251       O  0.05791612  0.22252405  0.79594301    -0.77950
C1252       C  0.03844160  0.31785187  0.81563110     0.85500
O1253       O  0.03156742  0.28694125  0.82129768    -0.65120
Ni1254     Ni  0.98700622  0.18840439  0.75466711     1.27450
Ni1255     Ni  0.97443039  0.26409755  0.72429753     1.26060
H1256       H  0.96531755  0.29359777  0.77850816     0.40040
C1257       C  0.97141108  0.26410372  0.01484357     0.04110
C1258       C  0.98889376  0.24869848  0.98663289    -0.12040
C1259       C  0.02016016  0.26251592  0.97173773     0.01610
C1260       C  0.03428902  0.29163973  0.98543936    -0.10570
C1261       C  0.01560257  0.30812320  0.01297256     0.04100
C1262       C  0.98225035  0.29555233  0.02557758    -0.09990
H1263       H  0.98099105  0.22376194  0.97878849     0.09690
H1264       H  0.06109230  0.29956110  0.97628576     0.07220
H1265       H  0.96732820  0.30767821  0.04678575     0.07070
O1266       O  0.08613172  0.40663670  0.12024179    -0.73450
O1267       O  0.14306220  0.46274845  0.17705528    -0.73480
O1268       O  0.08479712  0.47238138  0.12336990    -0.73530
O1269       O  0.13684632  0.39844614  0.16747886    -0.73580
O1270       O  0.18206561  0.39960781  0.12751374    -0.73520
O1271       O  0.12775459  0.47177079  0.08230673    -0.73490
O1272       O  0.18597256  0.46534245  0.13607936    -0.73470
O1273       O  0.13113031  0.40626900  0.08003441    -0.73530
Ni1274     Ni  0.11108911  0.43613477  0.14862992     1.25410
Ni1275     Ni  0.15852647  0.43691600  0.10511382     1.25360
C1276       C  0.09987359  0.39666968  0.09145679     0.88730
C1277       C  0.17760900  0.46511991  0.16835404     0.88660
C1278       C  0.09313336  0.47578275  0.09125661     0.88690
C1279       C  0.16723008  0.38660582  0.15418674     0.88860
C1280       C  0.01028264  0.95576748  0.24874462     0.04110
C1281       C  0.98276888  0.97481504  0.23234383    -0.12040
C1282       C  0.97090195  0.00613618  0.24521573     0.01610
C1283       C  0.98499077  0.01767513  0.27527255    -0.10570
C1284       C  0.01173347  0.99842119  0.29244111     0.04100
C1285       C  0.02387264  0.96690781  0.27957413    -0.09990
H1286       H  0.97344833  0.96706055  0.20764826     0.09690
H1287       H  0.97795655  0.04341064  0.28326077     0.07220
H1288       H  0.04580621  0.95250055  0.29185206     0.07070
C1289       C  0.22422805  0.26810193  0.21892122     0.04110
C1290       C  0.25849868  0.25258577  0.21033437    -0.12040
C1291       C  0.27081050  0.22408765  0.22838920     0.01610
C1292       C  0.24973476  0.21234649  0.25582960    -0.10570
C1293       C  0.21444394  0.22617142  0.26260601     0.04100
C1294       C  0.20159645  0.25416788  0.24436427    -0.09990
H1295       H  0.27502633  0.26219322  0.18925517     0.09690
H1296       H  0.25983482  0.19085890  0.27056896     0.07220
H1297       H  0.17405094  0.26489906  0.24974950     0.07070
O1298       O  0.11604999  0.08063268  0.38745674    -0.73450
O1299       O  0.16365746  0.13830798  0.44897749    -0.73480
O1300       O  0.11244088  0.08132449  0.45357780    -0.73530
O1301       O  0.16010926  0.13267625  0.38256062    -0.73580
O1302       O  0.11057695  0.16825962  0.38242218    -0.73520
O1303       O  0.06559061  0.11900455  0.45525468    -0.73490
O1304       O  0.11538247  0.17463982  0.44849717    -0.73470
O1305       O  0.06622379  0.11568091  0.38813524    -0.73530
Ni1306     Ni  0.13998439  0.10702371  0.41913033     1.25410
Ni1307     Ni  0.08768760  0.14577071  0.41931105     1.25360
C1308       C  0.08358469  0.08856055  0.37785269     0.88730
C1309       C  0.15028118  0.16875361  0.45256085     0.88660
C1310       C  0.07762017  0.08836367  0.45922172     0.88690
C1311       C  0.14211575  0.15818175  0.37037263     0.88860
C1312       C  0.20412360  0.03102194  0.00640910     0.04110
C1313       C  0.22691806  0.04467395  0.03024208    -0.12040
C1314       C  0.23363179  0.02724408  0.06055262     0.01610
C1315       C  0.21718534  0.99653001  0.06685365    -0.10570
C1316       C  0.19611481  0.98208811  0.04193648     0.04100
C1317       C  0.18894472  0.99954365  0.01191485    -0.09990
H1318       H  0.23981266  0.06847635  0.02485040     0.09690
H1319       H  0.22232843  0.98303009  0.09043400     0.07220
H1320       H  0.17198830  0.98863169  0.99278701     0.07070
O1321       O  0.39633475  0.11566533  0.17547297    -0.73450
O1322       O  0.45464256  0.05770089  0.11596409    -0.73480
O1323       O  0.46698418  0.11376548  0.16117860    -0.73530
O1324       O  0.38375018  0.06405443  0.13494935    -0.73580
O1325       O  0.37259054  0.10219396  0.09398142    -0.73520
O1326       O  0.46073405  0.14631763  0.11549716    -0.73490
O1327       O  0.44135762  0.09012807  0.07151421    -0.73470
O1328       O  0.39071622  0.15323093  0.13297062    -0.73530
Ni1329     Ni  0.42669967  0.08622103  0.14815053     1.25410
Ni1330     Ni  0.41697113  0.12418931  0.10150988     1.25360
C1331       C  0.38382886  0.14373107  0.16356869     0.88730
C1332       C  0.45095106  0.06093534  0.08358152     0.88660
C1333       C  0.47022082  0.14271821  0.14676651     0.88690
C1334       C  0.36310597  0.07690648  0.11207043     0.88860
O1335       O  0.12503365  0.17410264  0.87223820    -0.73450
O1336       O  0.17187664  0.11768699  0.80434592    -0.73480
O1337       O  0.11836052  0.17398534  0.80626981    -0.73530
O1338       O  0.17376396  0.12204440  0.87183885    -0.73580
O1339       O  0.12574739  0.08843385  0.87811762    -0.73520
O1340       O  0.07646049  0.13451848  0.80721538    -0.73490
O1341       O  0.12949279  0.07889525  0.81170860    -0.73470
O1342       O  0.07678605  0.14040216  0.87385141    -0.73530
Ni1343     Ni  0.14914314  0.14808472  0.83764860     1.25410
Ni1344     Ni  0.10045909  0.10910579  0.84220519     1.25360
C1345       C  0.09292572  0.16689862  0.88345733     0.88730
C1346       C  0.16232021  0.08676427  0.80219112     0.88660
C1347       C  0.08498233  0.16525143  0.80180827     0.88690
C1348       C  0.15687037  0.09850224  0.88750496     0.88860
O1349       O  0.06640099  0.84515455  0.13566362    -0.73450
O1350       O  0.12579658  0.78069900  0.08059858    -0.73480
O1351       O  0.07005995  0.77855178  0.13955870    -0.73530
O1352       O  0.11377522  0.84604262  0.08230629    -0.73580
O1353       O  0.16259217  0.84630955  0.11572067    -0.73520
O1354       O  0.11309879  0.78524957  0.17750509    -0.73490
O1355       O  0.16780005  0.77942341  0.11978919    -0.73470
O1356       O  0.11518654  0.85019475  0.16850945    -0.73530
Ni1357     Ni  0.09223583  0.81133024  0.10816442     1.25410
Ni1358     Ni  0.14155156  0.81439175  0.14663530     1.25360
C1359       C  0.08249353  0.85918070  0.16036065     0.88730
C1360       C  0.16023408  0.77677275  0.08826089     0.88660
C1361       C  0.07916384  0.77907807  0.17115710     0.88690
C1362       C  0.14457101  0.85787618  0.09027348     0.88860
O1363       O  0.81836982  0.08803035  0.12818388    -0.73450
O1364       O  0.89297852  0.13927435  0.08509211    -0.73480
O1365       O  0.89011847  0.09147315  0.13340192    -0.73530
O1366       O  0.82188696  0.13815984  0.07700071    -0.73580
O1367       O  0.81419272  0.17927030  0.11536698    -0.73520
O1368       O  0.88041958  0.13029563  0.17433346    -0.73490
O1369       O  0.88510651  0.17862469  0.12578758    -0.73470
O1370       O  0.80891292  0.12698906  0.16858810    -0.73530
Ni1371     Ni  0.85563383  0.11278488  0.10457824     1.25410
Ni1372     Ni  0.84608071  0.15533360  0.14751103     1.25360
C1373       C  0.80712454  0.09617797  0.15849364     0.88730
C1374       C  0.89976395  0.16802302  0.09760266     0.88660
C1375       C  0.89561679  0.10262151  0.16321513     0.88690
C1376       C  0.81361227  0.16916031  0.08417553     0.88860
C1377       C  0.32470711  0.02835230  0.10148993     0.24570
C1378       C  0.32747617  0.06305232  0.10647720    -0.23540
C1379       C  0.29658250  0.08506818  0.10286145     0.19480
C1380       C  0.26394062  0.07268516  0.09118705     0.24510
C1381       C  0.26252183  0.03840894  0.08245541    -0.23480
C1382       C  0.29248688  0.01598232  0.08914561     0.19420
F1383       F  0.29222852  0.98285033  0.08019037    -0.13440
F1384       F  0.35433194  0.00697184  0.10502872    -0.15800
F1385       F  0.23466251  0.09441194  0.08611794    -0.15800
F1386       F  0.29866359  0.11869442  0.10911868    -0.13440
C1387       C  0.13273180  0.91141853  0.05901261     0.24570
C1388       C  0.15808122  0.88668537  0.07116648    -0.23540
C1389       C  0.19603706  0.89189571  0.06851816     0.19480
C1390       C  0.20860258  0.92229599  0.05619303     0.24510
C1391       C  0.18315965  0.94813681  0.04726653    -0.23480
C1392       C  0.14529620  0.94223286  0.04730773     0.19420
F1393       F  0.12041655  0.96719055  0.03885770    -0.13440
F1394       F  0.09570904  0.90713063  0.06146397    -0.15800
F1395       F  0.24553341  0.92727125  0.05474350    -0.15800
F1396       F  0.22087377  0.86825653  0.07938318    -0.13440
C1397       C  0.15712392  0.06201965  0.97454536     0.24570
C1398       C  0.19389373  0.05056362  0.97676282    -0.23540
C1399       C  0.21989789  0.05717987  0.95060066     0.19480
C1400       C  0.20844256  0.07401466  0.92127404     0.24510
C1401       C  0.17110242  0.08397765  0.91850775    -0.23480
C1402       C  0.14576376  0.07876876  0.94561792     0.19420
F1403       F  0.10985483  0.08982775  0.94398258    -0.13440
F1404       F  0.13221221  0.05664141  0.00038217    -0.15800
F1405       F  0.23307781  0.07906332  0.89517342    -0.15800
F1406       F  0.25570569  0.04619147  0.95300190    -0.13440
C1407       C  0.18632351  0.17496411  0.28583317     0.24570
C1408       C  0.19106561  0.20996787  0.28799082    -0.23540
C1409       C  0.17685150  0.22837188  0.31619109     0.19480
C1410       C  0.15985201  0.21144450  0.34305580     0.24510
C1411       C  0.15766922  0.17615936  0.34179673    -0.23480
C1412       C  0.17013068  0.15802554  0.31293894     0.19420
F1413       F  0.16652159  0.12401788  0.31109447    -0.13440
F1414       F  0.19821189  0.15717166  0.25780693    -0.15800
F1415       F  0.14740557  0.22909601  0.37100335    -0.15800
F1416       F  0.18138985  0.26219835  0.31853211    -0.13440
C1417       C  0.36329074  0.19845052  0.18899845     0.24570
C1418       C  0.35835558  0.16386645  0.18438902    -0.23540
C1419       C  0.32621190  0.14876336  0.19619678     0.19480
C1420       C  0.29797806  0.16846946  0.21105844     0.24510
C1421       C  0.30232936  0.20336829  0.21559391    -0.23480
C1422       C  0.33546236  0.21817907  0.20517412     0.19420
F1423       F  0.34040350  0.25167308  0.20989573    -0.13440
F1424       F  0.39457066  0.21301205  0.17730254    -0.15800
F1425       F  0.26543195  0.15378676  0.21860868    -0.15800
F1426       F  0.32088876  0.11541753  0.19059539    -0.13440
C1427       C  0.06987703  0.01877499  0.31562444     0.24570
C1428       C  0.03147869  0.01545235  0.31898317    -0.23540
C1429       C  0.01082130  0.03558280  0.34243064     0.19480
C1430       C  0.02740367  0.06116152  0.35978439     0.24510
C1431       C  0.06561655  0.06463964  0.35639795    -0.23480
C1432       C  0.08695504  0.04284871  0.33474667     0.19420
F1433       F  0.12402010  0.04615327  0.33058286    -0.13440
F1434       F  0.09045454  0.00077270  0.29204265    -0.15800
F1435       F  0.00616238  0.08268262  0.37961107    -0.15800
F1436       F  0.97392210  0.03177570  0.34628219    -0.13440
C1437       C  0.91968782  0.04831272  0.23735081     0.24570
C1438       C  0.95082777  0.03027161  0.22393428    -0.23540
C1439       C  0.96557394  0.03832031  0.19156106     0.19480
C1440       C  0.94857939  0.06350542  0.17234344     0.24510
C1441       C  0.91723666  0.08127544  0.18560114    -0.23480
C1442       C  0.90304363  0.07397488  0.21832531     0.19420
F1443       F  0.87195728  0.09030283  0.23098795    -0.13440
F1444       F  0.90528236  0.04065605  0.26861763    -0.15800
F1445       F  0.96251891  0.07047521  0.14069419    -0.15800
F1446       F  0.99692978  0.02241087  0.17892839    -0.13440
C1447       C  0.08433392  0.90906947  0.19778111     0.24570
C1448       C  0.06347593  0.88496992  0.18138813    -0.23540
C1449       C  0.02550570  0.88339838  0.18861621     0.19480
C1450       C  0.00899087  0.90471849  0.21323268     0.24510
C1451       C  0.02961714  0.92880872  0.22933237    -0.23480
C1452       C  0.06741390  0.93107413  0.22137783     0.19420
F1453       F  0.08752219  0.95568635  0.23498617    -0.13440
F1454       F  0.12095083  0.91194131  0.19026243    -0.15800
F1455       F  0.97259328  0.90286169  0.22123377    -0.15800
F1456       F  0.00475690  0.86098877  0.17231659    -0.13440
C1457       C  0.19879069  0.32664385  0.22150717     0.24570
C1458       C  0.21196485  0.29903811  0.20175229    -0.23540
C1459       C  0.21250441  0.30109095  0.16599210     0.19480
C1460       C  0.19946233  0.33052974  0.15021328     0.24510
C1461       C  0.18495175  0.35750408  0.17015301    -0.23480
C1462       C  0.18469311  0.35543902  0.20578461     0.19420
F1463       F  0.17029894  0.38113754  0.22541223    -0.13440
F1464       F  0.19931120  0.32559350  0.25609317    -0.15800
F1465       F  0.19876077  0.33187736  0.11565397    -0.15800
F1466       F  0.22390322  0.27416158  0.14647281    -0.13440
C1467       C  0.03370753  0.33154895  0.06889502     0.24570
C1468       C  0.03471601  0.33322327  0.03293564    -0.23540
C1469       C  0.05781258  0.35632586  0.01651872     0.19480
C1470       C  0.08052962  0.37608940  0.03542869     0.24510
C1471       C  0.07865598  0.37447375  0.07111746    -0.23480
C1472       C  0.05504957  0.35226221  0.08766145     0.19420
F1473       F  0.05389156  0.34930274  0.12218882    -0.13440
F1474       F  0.01371714  0.30886010  0.08652039    -0.15800
F1475       F  0.10401443  0.39691785  0.01884683    -0.15800
F1476       F  0.05863670  0.35960753  0.98218327    -0.13440
C1477       C  0.03957456  0.20495617  0.89797810     0.24570
C1478       C  0.07415447  0.19084195  0.90638947    -0.23540
C1479       C  0.09280051  0.20294245  0.93440400     0.19480
C1480       C  0.07619084  0.22815620  0.95484508     0.24510
C1481       C  0.04125532  0.24191835  0.94676227    -0.23480
C1482       C  0.02345782  0.23079320  0.91788074     0.19420
F1483       F  0.99004996  0.24462420  0.90971039    -0.13440
F1484       F  0.02197896  0.19432988  0.87012800    -0.15800
F1485       F  0.09320148  0.23776249  0.98343384    -0.15800
F1486       F  0.12655817  0.18958550  0.94242912    -0.13440
C1487       C  0.94692309  0.21089639  0.09064612     0.24570
C1488       C  0.91996671  0.19136967  0.07673240    -0.23540
C1489       C  0.90838255  0.19732699  0.04342413     0.19480
C1490       C  0.92224301  0.22388049  0.02471746     0.24510
C1491       C  0.95020433  0.24280367  0.03787960    -0.23480
C1492       C  0.96320547  0.23555656  0.07071894     0.19420
F1493       F  0.99358271  0.25002527  0.08240098    -0.13440
F1494       F  0.95876264  0.20479595  0.12267142    -0.15800
F1495       F  0.90986425  0.23017725  0.99303858    -0.15800
F1496       F  0.88341335  0.17759846  0.02909624    -0.13440
C1497       C  0.96829520  0.30567876  0.59232852     0.24570
C1498       C  0.95065442  0.28876746  0.56653512    -0.23540
C1499       C  0.91262868  0.29463494  0.56158668     0.19480
C1500       C  0.89240887  0.31692242  0.58255336     0.24510
C1501       C  0.91034148  0.33432504  0.60766512    -0.23480
C1502       C  0.94822625  0.32866500  0.61270397     0.19420
F1503       F  0.96547589  0.34476378  0.63784410    -0.13440
F1504       F  0.00494781  0.30021378  0.59731056    -0.15800
F1505       F  0.85569916  0.32246082  0.57761340    -0.15800
F1506       F  0.89543000  0.28037294  0.53537423    -0.13440
C1507       C  0.97150379  0.16823488  0.47099285     0.24570
C1508       C  0.95324539  0.19632582  0.48626061    -0.23540
C1509       C  0.91506212  0.20236186  0.48169468     0.19480
C1510       C  0.89574809  0.18102850  0.46145399     0.24510
C1511       C  0.91467376  0.15446104  0.44458011    -0.23480
C1512       C  0.95239199  0.14760466  0.44973345     0.19420
F1513       F  0.97072733  0.12132020  0.43376612    -0.13440
F1514       F  0.00802772  0.16169746  0.47572094    -0.15800
F1515       F  0.85928965  0.18779896  0.45621338    -0.15800
F1516       F  0.89695050  0.23034348  0.49437359    -0.13440
C1517       C  0.07430422  0.29981832  0.49104323     0.24570
C1518       C  0.04502272  0.28483089  0.47482637    -0.23540
C1519       C  0.04088695  0.28912011  0.43955915     0.19480
C1520       C  0.06650023  0.30723138  0.42063865     0.24510
C1521       C  0.09575785  0.32209240  0.43695356    -0.23480
C1522       C  0.09905597  0.31892851  0.47235552     0.19420
F1523       F  0.12678646  0.33354439  0.48879998    -0.13440
F1524       F  0.07904907  0.29575290  0.52501543    -0.15800
F1525       F  0.06214493  0.31107098  0.38657253    -0.15800
F1526       F  0.01142580  0.27687768  0.42362428    -0.13440
C1527       C  0.94373312  0.57839938  0.27475465     0.24570
C1528       C  0.95802399  0.55082157  0.29321022    -0.23540
C1529       C  0.95379127  0.54994227  0.32889740     0.19480
C1530       C  0.93823788  0.57758322  0.34623436     0.24510
C1531       C  0.92528983  0.60578632  0.32798579    -0.23480
C1532       C  0.92681227  0.60570883  0.29214003     0.19420
F1533       F  0.91270612  0.63227253  0.27411642    -0.13440
F1534       F  0.94731199  0.57932025  0.24024198    -0.15800
F1535       F  0.93472953  0.57636541  0.38077138    -0.15800
F1536       F  0.96498078  0.52227888  0.34694936    -0.13440
C1537       C  0.96553569  0.46822882  0.18169449     0.24570
C1538       C  0.97360327  0.45348776  0.21313800    -0.23540
C1539       C  0.97194957  0.41818823  0.21754591     0.19480
C1540       C  0.96186235  0.39794050  0.19059779     0.24510
C1541       C  0.95312769  0.41300385  0.15947713    -0.23480
C1542       C  0.95507879  0.44813147  0.15513201     0.19420
F1543       F  0.94513358  0.46317795  0.12552435    -0.13440
F1544       F  0.96783600  0.50209216  0.17670702    -0.15800
F1545       F  0.95805547  0.36424245  0.19551677    -0.15800
F1546       F  0.97873941  0.40362562  0.24821215    -0.13440
C1547       C  0.06013342  0.47187715  0.33547203     0.24570
C1548       C  0.06483660  0.47378904  0.29974315    -0.23540
C1549       C  0.09470963  0.45645825  0.28333530     0.19480
C1550       C  0.11664345  0.43410761  0.30169015     0.24510
C1551       C  0.11069233  0.43088870  0.33698071    -0.23480
C1552       C  0.08361578  0.45099889  0.35408036     0.19420
F1553       F  0.07765002  0.44799295  0.38827008    -0.13440
F1554       F  0.03077807  0.48731888  0.35207127    -0.15800
F1555       F  0.14255124  0.41454779  0.28471499    -0.15800
F1556       F  0.10066715  0.45908222  0.24910724    -0.13440
C1557       C  0.77081528  0.48382796  0.57842334     0.24570
C1558       C  0.76485514  0.46401195  0.54952562    -0.23540
C1559       C  0.77155329  0.42872361  0.55095302     0.19480
C1560       C  0.78530422  0.41384872  0.58031162     0.24510
C1561       C  0.79411155  0.43416183  0.60781489    -0.23480
C1562       C  0.78645379  0.46907229  0.60700394     0.19420
F1563       F  0.79549064  0.48900798  0.63329403    -0.13440
F1564       F  0.76275661  0.51764076  0.57855968    -0.15800
F1565       F  0.79350079  0.38004970  0.58059492    -0.15800
F1566       F  0.76778506  0.40891459  0.52316622    -0.13440
C1567       C  0.82216964  0.55278631  0.45988956     0.24570
C1568       C  0.78344616  0.55356757  0.46221467    -0.23540
C1569       C  0.76294081  0.58083277  0.44843657     0.19480
C1570       C  0.78078154  0.60637703  0.43117361     0.24510
C1571       C  0.81936348  0.60536573  0.42829082    -0.23480
C1572       C  0.84009295  0.57876795  0.44322497     0.19420
F1573       F  0.87759005  0.57711530  0.44031127    -0.13440
F1574       F  0.84250334  0.52602156  0.47191768    -0.15800
F1575       F  0.76042325  0.63213305  0.41748506    -0.15800
F1576       F  0.72551592  0.58210151  0.45099050    -0.13440
C1577       C  0.67842829  0.44640134  0.38614160     0.24570
C1578       C  0.64656735  0.43286455  0.40053894    -0.23540
C1579       C  0.63864238  0.43577004  0.43558501     0.19480
C1580       C  0.66155476  0.45332458  0.45609387     0.24510
C1581       C  0.69460335  0.46555356  0.44235369    -0.23480
C1582       C  0.70301919  0.46195245  0.40713508     0.19420
F1583       F  0.73576174  0.47176586  0.39338418    -0.13440
F1584       F  0.68697399  0.44226482  0.35245875    -0.15800
F1585       F  0.65165832  0.45779566  0.48948513    -0.15800
F1586       F  0.60954918  0.42026392  0.45034691    -0.13440
C1587       C  0.77185860  0.17480721  0.28731225     0.24570
C1588       C  0.76581948  0.20756885  0.29988053    -0.23540
C1589       C  0.77137176  0.21493871  0.33425827     0.19480
C1590       C  0.78728033  0.19014137  0.35502112     0.24510
C1591       C  0.79786710  0.15873169  0.34083346    -0.23480
C1592       C  0.78846797  0.15054052  0.30762434     0.19420
F1593       F  0.79911601  0.12035447  0.29362660    -0.13440
F1594       F  0.76636429  0.16776752  0.25401638    -0.15800
F1595       F  0.79639814  0.19792324  0.38730643    -0.15800
F1596       F  0.76566009  0.24690700  0.34631697    -0.13440
C1597       C  0.70384497  0.33685337  0.25430558     0.24570
C1598       C  0.69812970  0.30273218  0.24652798    -0.23540
C1599       C  0.66301028  0.28960546  0.25087095     0.19480
C1600       C  0.63657879  0.30745621  0.27026284     0.24510
C1601       C  0.64416749  0.33957559  0.28246628    -0.23480
C1602       C  0.67632997  0.35551645  0.27201136     0.19420
F1603       F  0.68320004  0.38706569  0.28321170    -0.13440
F1604       F  0.73763973  0.35025607  0.24993546    -0.15800
F1605       F  0.60555291  0.29178984  0.28029239    -0.15800
F1606       F  0.65680462  0.25719510  0.24192671    -0.13440
C1607       C  0.83463013  0.25839796  0.18108875     0.24570
C1608       C  0.82559740  0.27579954  0.21136505    -0.23540
C1609       C  0.83796296  0.30839691  0.21681666     0.19480
C1610       C  0.85420920  0.32558298  0.19001724     0.24510
C1611       C  0.85894260  0.30968130  0.15834028    -0.23480
C1612       C  0.85168562  0.27543774  0.15435145     0.19420
F1613       F  0.85766507  0.25978831  0.12382303    -0.13440
F1614       F  0.82266762  0.22672864  0.17610604    -0.15800
F1615       F  0.86332291  0.35829216  0.19427489    -0.15800
F1616       F  0.82953791  0.32502009  0.24645209    -0.13440
C1617       C  0.91131232  0.53259743  0.70727098     0.24570
C1618       C  0.94759747  0.54223991  0.71041217    -0.23540
C1619       C  0.95940064  0.57351563  0.69810666     0.19480
C1620       C  0.93401270  0.59611726  0.68425473     0.24510
C1621       C  0.89748928  0.58677671  0.68204864    -0.23480
C1622       C  0.88618333  0.55485428  0.69265159     0.19420
F1623       F  0.85083463  0.54557048  0.68926239    -0.13440
F1624       F  0.90012053  0.50249109  0.71974994    -0.15800
F1625       F  0.94490597  0.62663639  0.67255125    -0.15800
F1626       F  0.99510354  0.58231011  0.70054978    -0.13440
C1627       C  0.01701481  0.42275032  0.71303738     0.24570
C1628       C  0.03728045  0.44886708  0.72640064    -0.23540
C1629       C  0.07597067  0.44855570  0.72217569     0.19480
C1630       C  0.09401261  0.42251091  0.70400977     0.24510
C1631       C  0.07323712  0.39778666  0.68895479    -0.23480
C1632       C  0.03486176  0.39792515  0.69343839     0.19420
F1633       F  0.01473659  0.37433988  0.67825736    -0.13440
F1634       F  0.97971194  0.42235872  0.71760437    -0.15800
F1635       F  0.13128597  0.42272088  0.69900321    -0.15800
F1636       F  0.09589226  0.47452803  0.73330624    -0.13440
C1637       C  0.03569843  0.53396116  0.83609160     0.24570
C1638       C  0.02629890  0.54624880  0.80408670    -0.23540
C1639       C  0.03402848  0.57963933  0.79419379     0.19480
C1640       C  0.05036929  0.60078140  0.81670997     0.24510
C1641       C  0.06044101  0.58806311  0.84824283    -0.23480
C1642       C  0.05349579  0.55470839  0.85791441     0.19420
F1643       F  0.06545148  0.54184476  0.88778838    -0.13440
F1644       F  0.02850303  0.50180979  0.84571689    -0.15800
F1645       F  0.05908477  0.63253233  0.80686654    -0.15800
F1646       F  0.02761780  0.59113407  0.76221264    -0.13440
C1647       C  0.31389905  0.52397827  0.58648798     0.24570
C1648       C  0.32355903  0.51643959  0.55216965    -0.23540
C1649       C  0.35363900  0.53201143  0.53622470     0.19480
C1650       C  0.37176788  0.55677705  0.55326584     0.24510
C1651       C  0.36177944  0.56450559  0.58717867    -0.23480
C1652       C  0.33369823  0.54732444  0.60413990     0.19420
F1653       F  0.32420909  0.55456983  0.63712631    -0.13440
F1654       F  0.28381938  0.51074474  0.60222799    -0.15800
F1655       F  0.39913589  0.57320196  0.53665512    -0.15800
F1656       F  0.36428334  0.52430870  0.50359929    -0.13440
C1657       C  0.16818249  0.42133641  0.57542404     0.24570
C1658       C  0.18415980  0.39050412  0.58621816    -0.23540
C1659       C  0.22117346  0.38182395  0.57800970     0.19480
C1660       C  0.24200204  0.40377908  0.55842178     0.24510
C1661       C  0.22618928  0.43466246  0.54755848    -0.23480
C1662       C  0.18924617  0.44358961  0.55652808     0.19420
F1663       F  0.17395299  0.47422679  0.54799492    -0.13440
F1664       F  0.13246240  0.43015033  0.58391254    -0.15800
F1665       F  0.27745254  0.39490088  0.54964567    -0.15800
F1666       F  0.23665441  0.35172066  0.58794091    -0.13440
C1667       C  0.32045419  0.68664617  0.73778902     0.24570
C1668       C  0.32916390  0.72112245  0.73918563    -0.23540
C1669       C  0.35812932  0.73309940  0.71861283     0.19480
C1670       C  0.37557075  0.71193294  0.69463937     0.24510
C1671       C  0.36532206  0.67822594  0.69212976    -0.23480
C1672       C  0.33885452  0.66527497  0.71455824     0.19420
F1673       F  0.32937278  0.63244389  0.71259221    -0.13440
F1674       F  0.29243966  0.67393150  0.75688184    -0.15800
F1675       F  0.40238734  0.72437588  0.67382622    -0.15800
F1676       F  0.36794848  0.76582404  0.72043831    -0.13440
C1677       C  0.21265922  0.70306031  0.79751657     0.24570
C1678       C  0.22529190  0.73214941  0.81334318    -0.23540
C1679       C  0.21068019  0.74263485  0.84485979     0.19480
C1680       C  0.18398117  0.72374821  0.86111523     0.24510
C1681       C  0.17389366  0.69314273  0.84670122    -0.23480
C1682       C  0.18796580  0.68284703  0.81481973     0.19420
F1683       F  0.17749092  0.65360196  0.80054767    -0.13440
F1684       F  0.22380166  0.69466012  0.76523880    -0.15800
F1685       F  0.16918375  0.73447769  0.89150438    -0.15800
F1686       F  0.22304303  0.77054246  0.85995791    -0.13440
C1687       C  0.19849753  0.80428318  0.71371854     0.24570
C1688       C  0.23546896  0.81005476  0.72134571    -0.23540
C1689       C  0.25424378  0.83590091  0.70464390     0.19480
C1690       C  0.23578582  0.85673718  0.68176154     0.24510
C1691       C  0.19831669  0.85268537  0.67629082    -0.23480
C1692       C  0.17981999  0.82595860  0.69171510     0.19420
F1693       F  0.14366099  0.82111314  0.68563116    -0.13440
F1694       F  0.18056363  0.77767525  0.72737082    -0.15800
F1695       F  0.25371955  0.88220450  0.66655131    -0.15800
F1696       F  0.28995223  0.84166657  0.71151229    -0.13440
C1697       C  0.19707276  0.53064062  0.41250470     0.24570
C1698       C  0.19033592  0.56496395  0.42008916    -0.23540
C1699       C  0.20639745  0.57968498  0.44802962     0.19480
C1700       C  0.22768522  0.55967356  0.46957396     0.24510
C1701       C  0.23413963  0.52498944  0.46242045    -0.23480
C1702       C  0.21928960  0.51077035  0.43339516     0.19420
F1703       F  0.22575137  0.47757683  0.42571734    -0.13440
F1704       F  0.18212542  0.51647241  0.38486508    -0.15800
F1705       F  0.23996885  0.57375948  0.49845034    -0.15800
F1706       F  0.19963722  0.61290156  0.45549489    -0.13440
C1707       C  0.03680383  0.68372820  0.41877788     0.24570
C1708       C  0.07280098  0.67310227  0.42690232    -0.23540
C1709       C  0.09103189  0.68871455  0.45324192     0.19480
C1710       C  0.07308260  0.71455316  0.47188715     0.24510
C1711       C  0.03711399  0.72563235  0.46352924    -0.23480
C1712       C  0.01919100  0.71017521  0.43674540     0.19420
F1713       F  0.98462235  0.72079769  0.42805160    -0.13440
F1714       F  0.01951862  0.66971601  0.39231773    -0.15800
F1715       F  0.09033024  0.72781984  0.49875293    -0.15800
F1716       F  0.12615596  0.67878023  0.46087484    -0.13440
C1717       C  0.91001845  0.72387654  0.53022243     0.24570
C1718       C  0.93616505  0.74303633  0.54639211    -0.23540
C1719       C  0.94000628  0.74043061  0.58194115     0.19480
C1720       C  0.91876586  0.71825890  0.60066040     0.24510
C1721       C  0.89463915  0.69749970  0.58397166    -0.23480
C1722       C  0.89058128  0.70018434  0.54863601     0.19420
F1723       F  0.86820621  0.67967826  0.53174619    -0.13440
F1724       F  0.90501619  0.72667891  0.49614971    -0.15800
F1725       F  0.92335575  0.71568146  0.63482242    -0.15800
F1726       F  0.96609872  0.75723800  0.59841077    -0.13440
C1727       C  0.04929788  0.84928344  0.52915641     0.24570
C1728       C  0.03607505  0.81977968  0.54362149    -0.23540
C1729       C  0.04574918  0.81000122  0.57677764     0.19480
C1730       C  0.06817068  0.83018556  0.59550698     0.24510
C1731       C  0.08190955  0.85940300  0.58062449    -0.23480
C1732       C  0.07237207  0.86896769  0.54756786     0.19420
F1733       F  0.08452333  0.89791793  0.53365664    -0.13440
F1734       F  0.03956417  0.85893813  0.49743790    -0.15800
F1735       F  0.07739782  0.82081483  0.62756124    -0.15800
F1736       F  0.03464605  0.78038237  0.59041006    -0.13440
C1737       C  0.68993552  0.30519963  0.73121934     0.24570
C1738       C  0.72183778  0.31829177  0.74493261    -0.23540
C1739       C  0.73568707  0.34848042  0.73222922     0.19480
C1740       C  0.71962959  0.36425632  0.70433083     0.24510
C1741       C  0.68838463  0.35070238  0.69014702    -0.23480
C1742       C  0.67297124  0.32169624  0.70428169     0.19420
F1743       F  0.64215608  0.30881881  0.69121250    -0.13440
F1744       F  0.67674326  0.27526399  0.74222492    -0.15800
F1745       F  0.73403763  0.39296266  0.69159975    -0.15800
F1746       F  0.76578671  0.36148040  0.74620710    -0.13440
C1747       C  0.71989897  0.19224826  0.81263720     0.24570
C1748       C  0.72710322  0.22493692  0.82429700    -0.23540
C1749       C  0.70909628  0.23725518  0.85404157     0.19480
C1750       C  0.68334465  0.21790735  0.87121981     0.24510
C1751       C  0.67666405  0.18537088  0.85950295    -0.23480
C1752       C  0.69516619  0.17248353  0.83042062     0.19420
F1753       F  0.68902132  0.14078954  0.81915582    -0.13440
F1754       F  0.73577478  0.17947657  0.78364152    -0.15800
F1755       F  0.66630570  0.23022910  0.90010988    -0.15800
F1756       F  0.71694138  0.26787276  0.86652290    -0.13440
C1757       C  0.81672169  0.18865087  0.68993252     0.24570
C1758       C  0.84817066  0.20176454  0.67441245    -0.23540
C1759       C  0.86188647  0.23240436  0.68549975     0.19480
C1760       C  0.84590254  0.24832040  0.71416078     0.24510
C1761       C  0.81510378  0.23448232  0.73063999    -0.23480
C1762       C  0.79954958  0.20552787  0.71713994     0.19420
F1763       F  0.76679770  0.19440587  0.72910529    -0.13440
F1764       F  0.80290263  0.15932084  0.67880425    -0.15800
F1765       F  0.86024473  0.27710956  0.72586285    -0.15800
F1766       F  0.89174035  0.24586694  0.66968730    -0.13440
C1767       C  0.44283908  0.16606972  0.55916431     0.24570
C1768       C  0.41067283  0.18321387  0.57151707    -0.23540
C1769       C  0.40265388  0.21668998  0.56212156     0.19480
C1770       C  0.42662217  0.23310424  0.54018679     0.24510
C1771       C  0.45864506  0.21614174  0.52768855    -0.23480
C1772       C  0.46705107  0.18263817  0.53740750     0.19420
F1773       F  0.49896863  0.16643488  0.52656065    -0.13440
F1774       F  0.45065514  0.13348339  0.56825849    -0.15800
F1775       F  0.41875495  0.26540449  0.53059361    -0.15800
F1776       F  0.37054142  0.23253934  0.57254717    -0.13440
C1777       C  0.58376532  0.21420048  0.42807847     0.24570
C1778       C  0.54530098  0.22060791  0.42956343    -0.23540
C1779       C  0.52311401  0.20682094  0.40464347     0.19480
C1780       C  0.53908179  0.18592609  0.37947158     0.24510
C1781       C  0.57746397  0.18098229  0.37727222    -0.23480
C1782       C  0.59977122  0.19523176  0.40160736     0.19420
F1783       F  0.63695792  0.18902800  0.40094502    -0.13440
F1784       F  0.60573386  0.22435288  0.45327140    -0.15800
F1785       F  0.51717972  0.17020987  0.35759945    -0.15800
F1786       F  0.48594824  0.21294787  0.40516982    -0.13440
C1787       C  0.56209509  0.28688059  0.56110395     0.24570
C1788       C  0.55439473  0.29728426  0.52753721    -0.23540
C1789       C  0.56810695  0.32755808  0.51472572     0.19480
C1790       C  0.58806252  0.34784298  0.53572759     0.24510
C1791       C  0.59327222  0.33839307  0.56979951    -0.23480
C1792       C  0.58061386  0.30786329  0.58238843     0.19420
F1793       F  0.58626974  0.29847302  0.61519558    -0.13440
F1794       F  0.55152918  0.25646084  0.57334666    -0.15800
F1795       F  0.60058130  0.37754004  0.52342656    -0.15800
F1796       F  0.56086123  0.33810765  0.48257458    -0.13440
C1797       C  0.68012127  0.04672927  0.43306129     0.24570
C1798       C  0.71879028  0.04659005  0.43427781    -0.23540
C1799       C  0.73911874  0.06490589  0.41015531     0.19480
C1800       C  0.72129606  0.08255800  0.38447929     0.24510
C1801       C  0.68280199  0.08172986  0.38258660    -0.23480
C1802       C  0.66222737  0.06404972  0.40726285     0.19420
F1803       F  0.62470022  0.06437758  0.40710012    -0.13440
F1804       F  0.65949513  0.03157000  0.45772898    -0.15800
F1805       F  0.74163027  0.10000684  0.36132131    -0.15800
F1806       F  0.77623362  0.06601341  0.41200517    -0.13440
C1807       C  0.72690201  0.90914974  0.55881836     0.24570
C1808       C  0.68828513  0.91034702  0.56316884    -0.23540
C1809       C  0.66668726  0.93460495  0.54585369     0.19480
C1810       C  0.68357004  0.95837815  0.52543618     0.24510
C1811       C  0.72223582  0.95781399  0.52165801    -0.23480
C1812       C  0.74382303  0.93275344  0.53789253     0.19420
F1813       F  0.78122863  0.93192657  0.53420327    -0.13440
F1814       F  0.74809077  0.88524509  0.57473130    -0.15800
F1815       F  0.66222564  0.98339980  0.51143100    -0.15800
F1816       F  0.62929882  0.93650435  0.55019295    -0.13440
C1817       C  0.79074598  0.09179833  0.53735601     0.24570
C1818       C  0.79870822  0.05699076  0.53236203    -0.23540
C1819       C  0.83019914  0.04151279  0.54646399     0.19480
C1820       C  0.85313476  0.06043146  0.56570818     0.24510
C1821       C  0.84588649  0.09528366  0.56959638    -0.23480
C1822       C  0.81485721  0.11104052  0.55528512     0.19420
F1823       F  0.80724141  0.14463011  0.55985215    -0.13440
F1824       F  0.75928493  0.10695243  0.52570172    -0.15800
F1825       F  0.88282989  0.04478166  0.58004797    -0.15800
F1826       F  0.83916525  0.00824724  0.54108961    -0.13440
C1827       C  0.42709156  0.09811585  0.69269711     0.24570
C1828       C  0.39919845  0.08198232  0.67576501    -0.23540
C1829       C  0.39282953  0.04775971  0.68175734     0.19480
C1830       C  0.41447325  0.02961939  0.70455369     0.24510
C1831       C  0.44335805  0.04535731  0.72065718    -0.23480
C1832       C  0.44952434  0.07977082  0.71465764     0.19420
F1833       F  0.47849675  0.09513789  0.72839973    -0.13440
F1834       F  0.43356978  0.13126088  0.68680249    -0.15800
F1835       F  0.40780873  0.99652915  0.71044884    -0.15800
F1836       F  0.36536244  0.03211667  0.66594768    -0.13440
C1837       C  0.51440043  0.05303604  0.83875376     0.24570
C1838       C  0.53379548  0.03704494  0.81140096    -0.23540
C1839       C  0.57205608  0.04139183  0.80687201     0.19480
C1840       C  0.59064937  0.06060852  0.82974678     0.24510
C1841       C  0.57113672  0.07700571  0.85664143    -0.23480
C1842       C  0.53278022  0.07373611  0.86067859     0.19420
F1843       F  0.51312605  0.09023540  0.88593627    -0.13440
F1844       F  0.47763511  0.04886296  0.84401879    -0.15800
F1845       F  0.62754207  0.06445334  0.82466870    -0.15800
F1846       F  0.59130552  0.02867072  0.77931913    -0.13440
C1847       C  0.52211277  0.92898693  0.70215193     0.24570
C1848       C  0.53928227  0.95581078  0.71764972    -0.23540
C1849       C  0.57666436  0.96170120  0.71021055     0.19480
C1850       C  0.59695591  0.94021289  0.68831238     0.24510
C1851       C  0.57983737  0.91311900  0.67321166    -0.23480
C1852       C  0.54225703  0.90768751  0.67989246     0.19420
F1853       F  0.52546490  0.88118484  0.66583577    -0.13440
F1854       F  0.48581721  0.92370936  0.70864397    -0.15800
F1855       F  0.63306669  0.94625445  0.68122992    -0.15800
F1856       F  0.59308442  0.98903641  0.72289973    -0.13440
C1857       C  0.42532102  0.51364390  0.20324424     0.24570
C1858       C  0.45515312  0.52784120  0.21922530    -0.23540
C1859       C  0.46268929  0.56219556  0.21409167     0.19480
C1860       C  0.43988320  0.58228806  0.19393985     0.24510
C1861       C  0.41044873  0.56787509  0.17784238    -0.23480
C1862       C  0.40329959  0.53352090  0.18227368     0.19420
F1863       F  0.37418026  0.51956845  0.16727923    -0.13440
F1864       F  0.41732164  0.48069940  0.20829020    -0.15800
F1865       F  0.44694985  0.61550683  0.18943440    -0.15800
F1866       F  0.49269603  0.57601853  0.22767178    -0.13440
C1867       C  0.58366183  0.43874691  0.21378910     0.24570
C1868       C  0.54604493  0.43403125  0.22143473    -0.23540
C1869       C  0.52737173  0.40891423  0.20437674     0.19480
C1870       C  0.54556252  0.38988178  0.17885519     0.24510
C1871       C  0.58284033  0.39527532  0.17069088    -0.23480
C1872       C  0.60204395  0.41917761  0.18879547     0.19420
F1873       F  0.63821431  0.42451878  0.18125858    -0.13440
F1874       F  0.60195348  0.46383636  0.22869539    -0.15800
F1875       F  0.52696279  0.36585827  0.16253267    -0.15800
F1876       F  0.49110317  0.40380911  0.21162999    -0.13440
C1877       C  0.40799645  0.71288710  0.02544279     0.24570
C1878       C  0.43769821  0.72870140  0.04013732    -0.23540
C1879       C  0.44738413  0.72059783  0.07378995     0.19480
C1880       C  0.42768045  0.69694686  0.09224343     0.24510
C1881       C  0.39924648  0.68018195  0.07685505    -0.23480
C1882       C  0.38940912  0.68818409  0.04345300     0.19420
F1883       F  0.36144050  0.67249833  0.02848507    -0.13440
F1884       F  0.39761143  0.72084391  0.99335837    -0.15800
F1885       F  0.43732784  0.68933427  0.12464447    -0.15800
F1886       F  0.47723902  0.73390316  0.08815998    -0.13440
C1887       C  0.58769033  0.82952921  0.05964099     0.24570
C1888       C  0.57092179  0.86004785  0.07115144    -0.23540
C1889       C  0.53374718  0.86796702  0.06463743     0.19480
C1890       C  0.51359695  0.84563835  0.04595376     0.24510
C1891       C  0.53043990  0.81519965  0.03420837    -0.23480
C1892       C  0.56744926  0.80701128  0.04159144     0.19420
F1893       F  0.58365871  0.77676857  0.03225959    -0.13440
F1894       F  0.62338708  0.82113484  0.06674627    -0.15800
F1895       F  0.47792168  0.85379050  0.03888672    -0.15800
F1896       F  0.51743651  0.89763536  0.07546655    -0.13440
C1897       C  0.55403738  0.67438813  0.92492815     0.24570
C1898       C  0.56941362  0.69099062  0.89670317    -0.23540
C1899       C  0.56509799  0.72618757  0.89344046     0.19480
C1900       C  0.54372862  0.74454367  0.91739540     0.24510
C1901       C  0.52828591  0.72804680  0.94584275    -0.23480
C1902       C  0.53437348  0.69287475  0.94983422     0.19420
F1903       F  0.52273428  0.67654067  0.97845212    -0.13440
F1904       F  0.55956924  0.64047894  0.92913871    -0.15800
F1905       F  0.53809915  0.77835907  0.91279151    -0.15800
F1906       F  0.58125038  0.74272030  0.86695480    -0.13440
C1907       C  0.72784743  0.39607123  0.05219270     0.24570
C1908       C  0.68912160  0.39799494  0.05538805    -0.23540
C1909       C  0.66898952  0.42348594  0.03832433     0.19480
C1910       C  0.68729393  0.44754947  0.01939725     0.24510
C1911       C  0.72609302  0.44611591  0.01645690    -0.23480
C1912       C  0.74622728  0.41968681  0.03228271     0.19420
F1913       F  0.78371528  0.41761914  0.02952762    -0.13440
F1914       F  0.74784937  0.37167324  0.06858941    -0.15800
F1915       F  0.66698426  0.47375832  0.00639371    -0.15800
F1916       F  0.63154690  0.42646947  0.04166485    -0.13440
C1917       C  0.85501073  0.54327419  0.07683646     0.24570
C1918       C  0.84404131  0.57620156  0.08688121    -0.23540
C1919       C  0.81188415  0.59182088  0.07441699     0.19480
C1920       C  0.79069598  0.57461482  0.05176629     0.24510
C1921       C  0.80238181  0.54209560  0.04051049    -0.23480
C1922       C  0.83447516  0.52639804  0.05340812     0.19420
F1923       F  0.84655522  0.49525157  0.04244608    -0.13440
F1924       F  0.88675114  0.52830902  0.08814042    -0.15800
F1925       F  0.75863124  0.58954323  0.04118197    -0.15800
F1926       F  0.80111964  0.62367955  0.08422727    -0.13440
C1927       C  0.74008502  0.56729941  0.91930981     0.24570
C1928       C  0.72167478  0.54568505  0.94189523    -0.23540
C1929       C  0.68283736  0.54605665  0.94304890     0.19480
C1930       C  0.66286997  0.56649074  0.92089554     0.24510
C1931       C  0.68139269  0.58718379  0.89744913    -0.23480
C1932       C  0.72015811  0.58777225  0.89700391     0.19420
F1933       F  0.73885031  0.60739534  0.87445116    -0.13440
F1934       F  0.77735730  0.56874864  0.91907029    -0.15800
F1935       F  0.62534693  0.56654431  0.92293395    -0.15800
F1936       F  0.66401643  0.52789124  0.96668694    -0.13440
C1937       C  0.53410198  0.56189067  0.35812811     0.24570
C1938       C  0.57179911  0.56792855  0.35396234    -0.23540
C1939       C  0.59332540  0.55002395  0.32917485     0.19480
C1940       C  0.57722970  0.52660482  0.30854160     0.24510
C1941       C  0.53953001  0.52001427  0.31304886    -0.23480
C1942       C  0.51832545  0.53733238  0.33851356     0.19420
F1943       F  0.48199933  0.53111645  0.34352428    -0.13440
F1944       F  0.51273883  0.57946761  0.38143974    -0.15800
F1945       F  0.59807085  0.51205189  0.28285820    -0.15800
F1946       F  0.62978117  0.55602826  0.32415436    -0.13440
C1947       C  0.67270204  0.71751174  0.30980288     0.24570
C1948       C  0.70547117  0.73155815  0.32075907    -0.23540
C1949       C  0.72047241  0.72101370  0.35171348     0.19480
C1950       C  0.70452476  0.69516604  0.37027538     0.24510
C1951       C  0.67242462  0.68065186  0.35898301    -0.23480
C1952       C  0.65593016  0.69258276  0.32922912     0.19420
F1953       F  0.62435697  0.67916512  0.31842253    -0.13440
F1954       F  0.65832946  0.72614119  0.27927764    -0.15800
F1955       F  0.72009988  0.68478008  0.39956409    -0.15800
F1956       F  0.75157061  0.73481672  0.36306258    -0.13440
C1957       C  0.79842432  0.68746227  0.23671395     0.24570
C1958       C  0.80803682  0.72127825  0.24151999    -0.23540
C1959       C  0.83953642  0.73372206  0.22507509     0.19480
C1960       C  0.85995640  0.71325044  0.20236592     0.24510
C1961       C  0.84951077  0.67998816  0.19674868    -0.23480
C1962       C  0.81954032  0.66674941  0.21473008     0.19420
F1963       F  0.80939142  0.63454255  0.20928878    -0.13440
F1964       F  0.76694368  0.67531619  0.25095582    -0.15800
F1965       F  0.88975885  0.72591425  0.18571864    -0.15800
F1966       F  0.84922586  0.76617591  0.22972207    -0.13440
C1967       C  0.70626851  0.79701651  0.18886124     0.24570
C1968       C  0.71351257  0.80806474  0.22196436    -0.23540
C1969       C  0.70348042  0.84092281  0.23206366     0.19480
C1970       C  0.68439011  0.86227168  0.21026148     0.24510
C1971       C  0.67694442  0.85137606  0.17734347    -0.23480
C1972       C  0.68851439  0.81898950  0.16629546     0.19420
F1973       F  0.68186757  0.80858042  0.13419104    -0.13440
F1974       F  0.71608436  0.76507344  0.17864943    -0.15800
F1975       F  0.67442485  0.89405300  0.22075920    -0.15800
F1976       F  0.71381154  0.85261000  0.26248159    -0.13440
C1977       C  0.32281343  0.56179344  0.97302756     0.24570
C1978       C  0.28408269  0.56327798  0.97687135    -0.23540
C1979       C  0.26341142  0.58790165  0.95887414     0.19480
C1980       C  0.28091467  0.60897404  0.93558662     0.24510
C1981       C  0.31949669  0.60759058  0.93210225    -0.23480
C1982       C  0.34037326  0.58413322  0.95124739     0.19420
F1983       F  0.37780365  0.58158382  0.94753210    -0.13440
F1984       F  0.34368138  0.53721746  0.98823326    -0.15800
F1985       F  0.26023465  0.63039674  0.91620785    -0.15800
F1986       F  0.22603848  0.59022177  0.96265230    -0.13440
C1987       C  0.17323254  0.48439420  0.94565322     0.24570
C1988       C  0.20524074  0.46886456  0.95883872    -0.23540
C1989       C  0.21795664  0.43687863  0.94704632     0.19480
C1990       C  0.19759309  0.41976568  0.92371747     0.24510
C1991       C  0.16507869  0.43490897  0.91142191    -0.23480
C1992       C  0.15339027  0.46757532  0.92169924     0.19420
F1993       F  0.12133046  0.48204757  0.91055417    -0.13440
F1994       F  0.16061618  0.51529364  0.95686964    -0.15800
F1995       F  0.20899518  0.38813211  0.91367850    -0.15800
F1996       F  0.25009273  0.42235314  0.95794806    -0.13440
C1997       C  0.32592501  0.46153690  0.05061178     0.24570
C1998       C  0.28742146  0.46572681  0.05538558    -0.23540
C1999       C  0.26893258  0.44589487  0.07965786     0.19480
C2000       C  0.28868980  0.42250358  0.09926893     0.24510
C2001       C  0.32720381  0.41855491  0.09451405    -0.23480
C2002       C  0.34566592  0.43827109  0.07014562     0.19420
F2003       F  0.38276119  0.43425797  0.06445334    -0.13440
F2004       F  0.34425223  0.47841930  0.02561264    -0.15800
F2005       F  0.27031871  0.40430522  0.12328365    -0.15800
F2006       F  0.23165935  0.44875854  0.08374273    -0.13440
C2007       C  0.55514188  0.42511926  0.82204221     0.24570
C2008       C  0.58954972  0.41234490  0.80961506    -0.23540
C2009       C  0.60525512  0.42521254  0.77935156     0.19480
C2010       C  0.58744585  0.45201956  0.76275723     0.24510
C2011       C  0.55377978  0.46550736  0.77593131    -0.23480
C2012       C  0.53717690  0.45139925  0.80509615     0.19420
F2013       F  0.50336368  0.46278172  0.81686849    -0.13440
F2014       F  0.53962956  0.41285937  0.85126409    -0.15800
F2015       F  0.60325347  0.46560648  0.73443661    -0.15800
F2016       F  0.63894638  0.41361990  0.76738945    -0.13440
C2017       C  0.46176181  0.55594984  0.81523484     0.24570
C2018       C  0.46961298  0.56371525  0.78070689    -0.23540
C2019       C  0.45624056  0.59447461  0.76713070     0.19480
C2020       C  0.43519881  0.61698766  0.78758598     0.24510
C2021       C  0.42846484  0.60938159  0.82208172    -0.23480
C2022       C  0.44201067  0.57902893  0.83591344     0.19420
F2023       F  0.43466714  0.57113288  0.86906904    -0.13440
F2024       F  0.47180528  0.52549428  0.82875773    -0.15800
F2025       F  0.42192939  0.64642650  0.77392821    -0.15800
F2026       F  0.46382121  0.60278472  0.73424220    -0.13440
C2027       C  0.49155675  0.46487971  0.65890900     0.24570
C2028       C  0.47027194  0.48317687  0.68362459    -0.23540
C2029       C  0.43185377  0.47908776  0.68592392     0.19480
C2030       C  0.41549899  0.45631687  0.66455725     0.24510
C2031       C  0.43755063  0.43597482  0.64206839    -0.23480
C2032       C  0.47573018  0.43993381  0.63996692     0.19420
F2033       F  0.49781398  0.41890820  0.62045094    -0.13440
F2034       F  0.52836013  0.46954252  0.65511632    -0.15800
F2035       F  0.37844277  0.45241386  0.66763653    -0.15800
F2036       F  0.41047745  0.49489820  0.71048975    -0.13440
C2037       C  0.55397962  0.25419895  0.91079200     0.24570
C2038       C  0.56125118  0.24699188  0.94519743    -0.23540
C2039       C  0.59053569  0.26233424  0.96093097     0.19480
C2040       C  0.60908810  0.28768445  0.94409927     0.24510
C2041       C  0.60036968  0.29623344  0.91055049    -0.23480
C2042       C  0.57413205  0.27836966  0.89331129     0.19420
F2043       F  0.56578535  0.28650299  0.86071958    -0.13440
F2044       F  0.52510300  0.24059993  0.89519713    -0.15800
F2045       F  0.63443559  0.30488307  0.96110998    -0.15800
F2046       F  0.59865315  0.25502445  0.99377745    -0.13440
C2047       C  0.43101891  0.27229319  0.03455699     0.24570
C2048       C  0.46852291  0.26243577  0.03714173    -0.23540
C2049       C  0.48986071  0.27719078  0.06212529     0.19480
C2050       C  0.47375651  0.30110180  0.08443358     0.24510
C2051       C  0.43592763  0.30929258  0.08301536    -0.23480
C2052       C  0.41472299  0.29520313  0.05769641     0.19420
F2053       F  0.37824263  0.30392885  0.05521944    -0.13440
F2054       F  0.41037349  0.26054258  0.00912474    -0.15800
F2055       F  0.49469846  0.31528346  0.10820856    -0.15800
F2056       F  0.52615131  0.26809076  0.06518577    -0.13440
C2057       C  0.43056924  0.15192661  0.90462157     0.24570
C2058       C  0.41628002  0.12425103  0.92202345    -0.23540
C2059       C  0.42313265  0.11905651  0.95665427     0.19480
C2060       C  0.44551886  0.14106445  0.97355623     0.24510
C2061       C  0.46059363  0.16841063  0.95584998    -0.23480
C2062       C  0.45211403  0.17420973  0.92154507     0.19420
F2063       F  0.46386059  0.20197956  0.90464209    -0.13440
F2064       F  0.42295957  0.15769430  0.87136192    -0.15800
F2065       F  0.45302064  0.13545007  0.00681907    -0.15800
F2066       F  0.40926484  0.09216138  0.97359512    -0.13440
C2067       C  0.27690904  0.18616031  0.81096237     0.24570
C2068       C  0.28167993  0.18590763  0.77520027    -0.23540
C2069       C  0.30306295  0.15982401  0.75935083     0.19480
C2070       C  0.31989410  0.13467516  0.77894807     0.24510
C2071       C  0.31496046  0.13508297  0.81461695    -0.23480
C2072       C  0.29311418  0.16072912  0.83044271     0.19420
F2073       F  0.28873759  0.16203043  0.86491828    -0.13440
F2074       F  0.25800289  0.21173141  0.82743868    -0.15800
F2075       F  0.34059588  0.10975703  0.76300493    -0.15800
F2076       F  0.30768254  0.15877044  0.72492640    -0.13440
C2077       C  0.30390238  0.31731943  0.70231059     0.24570
C2078       C  0.30275868  0.28213681  0.69676984    -0.23540
C2079       C  0.32414255  0.26705166  0.67026538     0.19480
C2080       C  0.34480280  0.28707654  0.64852508     0.24510
C2081       C  0.34302483  0.32235209  0.65209582    -0.23480
C2082       C  0.32320783  0.33745214  0.67943701     0.19420
F2083       F  0.32287780  0.37147412  0.68407783    -0.13440
F2084       F  0.28610842  0.33218363  0.72963747    -0.15800
F2085       F  0.36510481  0.27220391  0.62282990    -0.15800
F2086       F  0.32354751  0.23327509  0.66431894    -0.13440
C2087       C  0.20665829  0.28808365  0.80344486     0.24570
C2088       C  0.19596325  0.28097605  0.77019712    -0.23540
C2089       C  0.16666443  0.29950090  0.75586320     0.19480
C2090       C  0.14653446  0.32344764  0.77538870     0.24510
C2091       C  0.15584616  0.32861203  0.80939874    -0.23480
C2092       C  0.18635738  0.31133489  0.82310278     0.19420
F2093       F  0.19692418  0.31751557  0.85536878    -0.13440
F2094       F  0.23808719  0.27406077  0.81620669    -0.15800
F2095       F  0.11763135  0.34080292  0.76147544    -0.15800
F2096       F  0.15838220  0.29476259  0.72288981    -0.13440
C2097       C  0.49199263  0.81138529  0.54428849     0.24570
C2098       C  0.49057456  0.77580651  0.54625351    -0.23540
C2099       C  0.47538343  0.76090478  0.57575076     0.19480
C2100       C  0.45944120  0.78117021  0.60156468     0.24510
C2101       C  0.46000349  0.81655246  0.59900680    -0.23480
C2102       C  0.47753522  0.83150070  0.57084641     0.19420
F2103       F  0.47744777  0.86568774  0.56744866    -0.13440
F2104       F  0.50436882  0.82702491  0.51555825    -0.15800
F2105       F  0.44212730  0.76626056  0.62842957    -0.15800
F2106       F  0.47465598  0.72674868  0.57897585    -0.13440
C2107       C  0.28698016  0.94949076  0.57634300     0.24570
C2108       C  0.30311009  0.96526178  0.54803518    -0.23540
C2109       C  0.34116824  0.96032005  0.54046255     0.19480
C2110       C  0.36281039  0.93968853  0.56140554     0.24510
C2111       C  0.34619121  0.92334930  0.58923926    -0.23480
C2112       C  0.30830757  0.92845799  0.59655488     0.19420
F2113       F  0.29213411  0.91405261  0.62414376    -0.13440
F2114       F  0.25044473  0.95447543  0.58433057    -0.15800
F2115       F  0.39952976  0.93496752  0.55412518    -0.15800
F2116       F  0.35696871  0.97435092  0.51226700    -0.13440
C2117       C  0.31556514  0.07124381  0.41327195     0.24570
C2118       C  0.32835430  0.10052406  0.42800905    -0.23540
C2119       C  0.32030606  0.10797488  0.46242526     0.19480
C2120       C  0.29858245  0.08636438  0.48178577     0.24510
C2121       C  0.28562360  0.05708578  0.46684896    -0.23480
C2122       C  0.29485151  0.04940663  0.43266836     0.19420
F2123       F  0.28591640  0.01967266  0.41856895    -0.13440
F2124       F  0.32452009  0.06306448  0.38036600    -0.15800
F2125       F  0.29071095  0.09352317  0.51507198    -0.15800
F2126       F  0.33301320  0.13613626  0.47704270    -0.13440
C2127       C  0.17751477  0.94344574  0.48577624     0.24570
C2128       C  0.20289772  0.96319627  0.46780858    -0.23540
C2129       C  0.20761425  0.95948364  0.43231171     0.19480
C2130       C  0.18686580  0.93668896  0.41503706     0.24510
C2131       C  0.16171991  0.91682194  0.43310146    -0.23480
C2132       C  0.15746592  0.92003767  0.46854231     0.19420
F2133       F  0.13308482  0.90121948  0.48629745    -0.13440
F2134       F  0.17240854  0.94671092  0.52002897    -0.15800
F2135       F  0.19183656  0.93359020  0.38072710    -0.15800
F2136       F  0.23337039  0.97673436  0.41442583    -0.13440
C2137       C  0.60804936  0.76963247  0.39627295     0.24570
C2138       C  0.59617729  0.80278517  0.38817566    -0.23540
C2139       C  0.56274649  0.81635353  0.40230092     0.19480
C2140       C  0.54343763  0.79827286  0.42680649     0.24510
C2141       C  0.55713952  0.76637921  0.43707321    -0.23480
C2142       C  0.58830130  0.75151721  0.42059706     0.19420
F2143       F  0.60059701  0.72029136  0.42950786    -0.13440
F2144       F  0.64048981  0.75611278  0.38334838    -0.15800
F2145       F  0.51177646  0.81212749  0.44109075    -0.15800
F2146       F  0.55012284  0.84800369  0.39399359    -0.13440
C2147       C  0.59930514  0.95831270  0.25358893     0.24570
C2148       C  0.56458255  0.94583463  0.24723218    -0.23540
C2149       C  0.55722156  0.91168108  0.25428903     0.19480
C2150       C  0.58297175  0.89164553  0.27123362     0.24510
C2151       C  0.61503314  0.90609530  0.28214139    -0.23480
C2152       C  0.62396068  0.93884697  0.27216507     0.19420
F2153       F  0.65461463  0.95323790  0.28333856    -0.13440
F2154       F  0.60738206  0.99069212  0.24556845    -0.15800
F2155       F  0.57433283  0.85992477  0.28123244    -0.15800
F2156       F  0.52346556  0.89903720  0.24923683    -0.13440
C2157       C  0.43740004  0.98098822  0.16893890     0.24570
C2158       C  0.44383339  0.96589106  0.20036700    -0.23540
C2159       C  0.42857250  0.93502809  0.20936704     0.19480
C2160       C  0.40867925  0.91814262  0.18562741     0.24510
C2161       C  0.40440625  0.93233633  0.15326986    -0.23480
C2162       C  0.41789074  0.96397700  0.14507957     0.19420
F2163       F  0.41535094  0.97651250  0.11311232    -0.13440
F2164       F  0.45347108  0.01028595  0.16049464    -0.15800
F2165       F  0.39534150  0.88732249  0.19335854    -0.15800
F2166       F  0.43538212  0.92034372  0.23998078    -0.13440
C2167       C  0.48124324  0.03965915  0.31908758     0.24570
C2168       C  0.48637620  0.04505320  0.28392927    -0.23540
C2169       C  0.47358316  0.07519296  0.26885230     0.19480
C2170       C  0.45163317  0.09786470  0.28776864     0.24510
C2171       C  0.44409333  0.09142415  0.32230492    -0.23480
C2172       C  0.46047168  0.06330199  0.33848840     0.19420
F2173       F  0.45365266  0.05737183  0.37214448    -0.13440
F2174       F  0.49294622  0.01016487  0.33372149    -0.15800
F2175       F  0.43634424  0.12530470  0.27198084    -0.15800
F2176       F  0.47897058  0.08069807  0.23491526    -0.13440
C2177       C  0.42077321  0.64263469  0.45983316     0.24570
C2178       C  0.41224395  0.64775256  0.42551067    -0.23540
C2179       C  0.42338004  0.67677417  0.40830961     0.19480
C2180       C  0.44436995  0.69994521  0.42485101     0.24510
C2181       C  0.45573947  0.69350339  0.45834164    -0.23480
C2182       C  0.44282602  0.66531366  0.47616752     0.19420
F2183       F  0.45339031  0.65867907  0.50848603    -0.13440
F2184       F  0.40991788  0.61451995  0.47667335    -0.15800
F2185       F  0.45442925  0.72828069  0.40786652    -0.15800
F2186       F  0.41433077  0.68236357  0.37537715    -0.13440
C2187       C  0.15512663  0.75502698  0.29774299     0.24570
C2188       C  0.18568086  0.76704378  0.27929946    -0.23540
C2189       C  0.20060674  0.79814003  0.28806982     0.19480
C2190       C  0.18396834  0.81765093  0.31376543     0.24510
C2191       C  0.15335895  0.80572527  0.33183283    -0.23480
C2192       C  0.13935753  0.77410952  0.32438782     0.19420
F2193       F  0.10933790  0.76260587  0.34170762    -0.13440
F2194       F  0.14063516  0.72499078  0.28979309    -0.15800
F2195       F  0.19758501  0.84826367  0.32103979    -0.15800
F2196       F  0.23192915  0.80923078  0.27253716    -0.13440
C2197       C  0.25380237  0.64887953  0.28720323     0.24570
C2198       C  0.27237271  0.67466072  0.26997259    -0.23540
C2199       C  0.30843689  0.68210662  0.27892165     0.19480
C2200       C  0.32566922  0.66381061  0.30433488     0.24510
C2201       C  0.30682000  0.63847231  0.32179947    -0.23480
C2202       C  0.27053291  0.63162784  0.31392741     0.19420
F2203       F  0.25191685  0.60789885  0.33170392    -0.13440
F2204       F  0.21887313  0.64181663  0.27884949    -0.15800
F2205       F  0.36068383  0.67124789  0.31241734    -0.15800
F2206       F  0.32630361  0.70839867  0.26477111    -0.13440
C2207       C  0.25640825  0.78668466  0.16313452     0.24570
C2208       C  0.27447355  0.76767532  0.18797286    -0.23540
C2209       C  0.31044802  0.77577997  0.19681158     0.19480
C2210       C  0.32784468  0.80235031  0.18040034     0.24510
C2211       C  0.30886152  0.82175138  0.15606924    -0.23480
C2212       C  0.27279016  0.81409643  0.14806491     0.19420
F2213       F  0.25381759  0.83225428  0.12464391    -0.13440
F2214       F  0.22194318  0.77925138  0.15470522    -0.15800
F2215       F  0.36291885  0.80944478  0.18851090    -0.15800
F2216       F  0.32806886  0.75928134  0.22226585    -0.13440
C2217       C  0.99267899  0.96029199  0.66611698     0.24570
C2218       C  0.97173202  0.97831816  0.69106632    -0.23540
C2219       C  0.93402084  0.97253100  0.69593384     0.19480
C2220       C  0.91746221  0.94913075  0.67580412     0.24510
C2221       C  0.93846752  0.93118274  0.65065243    -0.23480
C2222       C  0.97628112  0.93654078  0.64611138     0.19420
F2223       F  0.99699567  0.91957699  0.62182756    -0.13440
F2224       F  0.02930456  0.96513457  0.66217048    -0.15800
F2225       F  0.88092757  0.94366642  0.68118075    -0.15800
F2226       F  0.91371084  0.98798105  0.72146968    -0.13440
C2227       C  0.08346591  0.98529343  0.80077501     0.24570
C2228       C  0.05252572  0.97068834  0.78715263    -0.23540
C2229       C  0.04451292  0.93689822  0.79433556     0.19480
C2230       C  0.06806625  0.91755642  0.81430562     0.24510
C2231       C  0.09891083  0.93228081  0.82779186    -0.23480
C2232       C  0.10645798  0.96619067  0.82138715     0.19420
F2233       F  0.13690740  0.98027801  0.83386160    -0.13440
F2234       F  0.09176336  0.01774171  0.79341942    -0.15800
F2235       F  0.06059648  0.88474657  0.82094587    -0.15800
F2236       F  0.01367145  0.92292262  0.78256573    -0.13440
C2237       C  0.99243240  0.09242683  0.79406627     0.24570
C2238       C  0.97049732  0.07072745  0.77582212    -0.23540
C2239       C  0.93185396  0.07421021  0.77866166     0.19480
C2240       C  0.91548838  0.09848876  0.80028646     0.24510
C2241       C  0.93760728  0.11884293  0.82006626    -0.23480
C2242       C  0.97617264  0.11556322  0.81691905     0.19420
F2243       F  0.99809925  0.13412202  0.83645695    -0.13440
F2244       F  0.02980416  0.08951013  0.79116254    -0.15800
F2245       F  0.87801427  0.10046292  0.80352673    -0.15800
F2246       F  0.90992259  0.05246767  0.76277529    -0.13440
C2247       C  0.99353822  0.68434428  0.93317179     0.24570
C2248       C  0.98996002  0.68437204  0.96913083    -0.23540
C2249       C  0.96863342  0.65996051  0.98549568     0.19480
C2250       C  0.94779497  0.63875506  0.96647957     0.24510
C2251       C  0.95067300  0.63929314  0.93068924    -0.23480
C2252       C  0.97471577  0.66125910  0.91417127     0.19420
F2253       F  0.97725222  0.66261838  0.87960156    -0.13440
F2254       F  0.01251984  0.70825162  0.91604761    -0.15800
F2255       F  0.92363907  0.61871494  0.98323377    -0.15800
F2256       F  0.96617509  0.65801298  0.02004467    -0.13440
C2257       C  0.94469298  0.76235838  0.07901741     0.24570
C2258       C  0.96029969  0.77773654  0.05005389    -0.23540
C2259       C  0.95208905  0.81206315  0.04312179     0.19480
C2260       C  0.93150234  0.83153373  0.06659032     0.24510
C2261       C  0.91787121  0.81661235  0.09650793    -0.23480
C2262       C  0.92323175  0.78178121  0.10212959     0.19420
F2263       F  0.90995612  0.76717618  0.13107675    -0.13440
F2264       F  0.95209156  0.72918093  0.08591049    -0.15800
F2265       F  0.92534329  0.86504750  0.06042104    -0.15800
F2266       F  0.96480915  0.82689810  0.01403023    -0.13440
C2267       C  0.05536263  0.78928848  0.93962192     0.24570
C2268       C  0.06522974  0.78276316  0.97342587    -0.23540
C2269       C  0.09134087  0.80250251  0.98877837     0.19480
C2270       C  0.10913107  0.82715435  0.96995953     0.24510
C2271       C  0.10105398  0.83177775  0.93550385    -0.23480
C2272       C  0.07351030  0.81336691  0.92065632     0.19420
F2273       F  0.06438480  0.81862457  0.88767360    -0.13440
F2274       F  0.02712184  0.77336199  0.92535807    -0.15800
F2275       F  0.13529675  0.84527768  0.98490482    -0.15800
F2276       F  0.09938357  0.79790762  0.02191673    -0.13440
C2277       C  0.81802793  0.05615962  0.92965868     0.24570
C2278       C  0.80697788  0.05902165  0.96427974    -0.23540
C2279       C  0.81802240  0.08646660  0.98357067     0.19480
C2280       C  0.83791257  0.11177824  0.96774419     0.24510
C2281       C  0.84515639  0.11048490  0.93260076    -0.23480
C2282       C  0.83618864  0.08227772  0.91371137     0.19420
F2283       F  0.84517098  0.08008111  0.87991575    -0.13440
F2284       F  0.81080617  0.02828528  0.91120627    -0.15800
F2285       F  0.84870114  0.13828503  0.98618161    -0.15800
F2286       F  0.80812178  0.08953176  0.01708123    -0.13440
C2287       C  0.69494911  0.92817148  0.91689745     0.24570
C2288       C  0.66390640  0.94592053  0.90473722    -0.23540
C2289       C  0.65808260  0.98053360  0.91118328     0.19480
C2290       C  0.68200313  0.99678310  0.93210728     0.24510
C2291       C  0.71151857  0.97841207  0.94645300    -0.23480
C2292       C  0.71897286  0.94445777  0.93743599     0.19420
F2293       F  0.74917956  0.92700159  0.94890659    -0.13440
F2294       F  0.70118939  0.89481416  0.90975630    -0.15800
F2295       F  0.67550163  0.02987770  0.93971669    -0.15800
F2296       F  0.62782206  0.99776942  0.89953645    -0.13440
C2297       C  0.82557720  0.95562602  0.04358364     0.24570
C2298       C  0.78811445  0.96583072  0.04573280    -0.23540
C2299       C  0.76475536  0.95194210  0.07088464     0.19480
C2300       C  0.77930367  0.92955659  0.09499530     0.24510
C2301       C  0.81735301  0.92194634  0.09444976    -0.23480
C2302       C  0.84012521  0.93408143  0.06789452     0.19420
F2303       F  0.87673694  0.92522394  0.06562277    -0.13440
F2304       F  0.84805128  0.96602522  0.01759634    -0.15800
F2305       F  0.75677671  0.91633443  0.11937706    -0.15800
F2306       F  0.72818524  0.96065946  0.07224067    -0.13440
C2307       C  0.81501247  0.66846006  0.77195942     0.24570
C2308       C  0.79925220  0.69797192  0.78682469    -0.23540
C2309       C  0.80374788  0.70411107  0.82177072     0.19480
C2310       C  0.82253764  0.68047301  0.84169400     0.24510
C2311       C  0.83803858  0.65098707  0.82674526    -0.23480
C2312       C  0.83447364  0.64511806  0.79175394     0.19420
F2313       F  0.84873943  0.61627620  0.77699428    -0.13440
F2314       F  0.81106415  0.66203683  0.73843113    -0.15800
F2315       F  0.82649757  0.68679253  0.87536218    -0.15800
F2316       F  0.79105232  0.73346591  0.83646259    -0.13440
C2317       C  0.68513075  0.81936590  0.83309552     0.24570
C2318       C  0.65561297  0.83464074  0.81583838    -0.23540
C2319       C  0.64976842  0.82658003  0.78171241     0.19480
C2320       C  0.67336862  0.80305936  0.76498815     0.24510
C2321       C  0.70335505  0.78811887  0.78209332    -0.23480
C2322       C  0.70917362  0.79662175  0.81622456     0.19420
F2323       F  0.73919165  0.78435362  0.83279572    -0.13440
F2324       F  0.69144104  0.82741927  0.86599635    -0.15800
F2325       F  0.66718803  0.79494005  0.73213717    -0.15800
F2326       F  0.62083512  0.84085775  0.76495015    -0.13440
C2327       C  0.83756814  0.79074707  0.69754364     0.24570
C2328       C  0.80067963  0.78222968  0.69316564    -0.23540
C2329       C  0.78157895  0.79462239  0.66478508     0.19480
C2330       C  0.79860029  0.81640837  0.64185881     0.24510
C2331       C  0.83514635  0.82526208  0.64668525    -0.23480
C2332       C  0.85482675  0.81180696  0.67413557     0.19420
F2333       F  0.89026412  0.82032462  0.67908727    -0.13440
F2334       F  0.85619345  0.78043984  0.72548625    -0.15800
F2335       F  0.77970203  0.82839623  0.61472684    -0.15800
F2336       F  0.74621594  0.78604905  0.65974675    -0.13440
loop_ 
_geom_bond_atom_site_label_1 
_geom_bond_atom_site_label_2 
_geom_bond_distance 
_geom_bond_site_symmetry_2 
_ccdc_geom_bond_type 
O1           Ni7   1.911       .  S
O1           C22   1.271       .  A
O2          Ni25   1.979       .  S
O2           C11   1.286       .  A
O3           Ni7   1.928       .  S
O3          Ni25   1.949       .  S
O3          Ni19   1.918       .  S
O3           H26   0.966       .  S
C4           O21   1.287       .  A
C4           O13   1.272       .  A
C4          C428   1.530       .  S
O5          Ni24   1.911       .  S
O5           C11   1.272       .  A
O6          Ni24   1.981       .  S
O6            C8   1.284       .  A
Ni7          O10   1.896       .  S
Ni7          O12   1.972       .  S
C8           O18   1.288       .  A
C8          C719   1.567       .  S
O9          Ni25   1.986       .  S
O9           C15   1.283       .  A
O10          C15   1.263       .  A
C11        C1131   1.516       .  S
O12          C14   1.284       .  A
O13         Ni24   1.913       .  S
C14          O20   1.289       .  A
C14         C654   1.551       .  S
C15         C946   1.524       .  S
H16          O17   0.966       .  S
O17         Ni25   1.915       .  S
O17         Ni19   1.938       .  S
O17         Ni24   1.924       .  S
O18         Ni19   2.014       .  S
Ni19         O23   1.969       .  S
Ni19         O21   1.983       .  S
O20         Ni25   2.011       .  S
C22          O23   1.286       .  A
C22        C1043   1.507       .  S
O27         Ni33   1.936       .  S
O27          C48   1.274       .  A
O28         Ni51   1.988       .  S
O28          C37   1.291       .  A
O29         Ni33   1.922       .  S
O29         Ni51   1.959       .  S
O29         Ni45   1.916       .  S
O29          H52   0.966       .  S
C30          O47   1.279       .  A
C30          O39   1.263       .  A
C30         C511   1.508       .  S
O31         Ni50   1.914       .  S
O31          C37   1.272       .  A
O32         Ni50   1.965       .  S
O32          C34   1.284       .  A
Ni33         O36   1.904       .  S
Ni33         O38   1.966       .  S
C34          O44   1.287       .  A
C34         C910   1.539       .  S
O35         Ni51   1.965       .  S
O35          C41   1.280       .  A
O36          C41   1.267       .  A
C37        C1132   1.518       .  S
O38          C40   1.286       .  A
O39         Ni50   1.890       .  S
C40          O46   1.286       .  A
C40         C668   1.533       .  S
C41         C775   1.507       .  S
H42          O43   0.966       .  S
O43         Ni51   1.900       .  S
O43         Ni45   1.946       .  S
O43         Ni50   1.921       .  S
O44         Ni45   2.003       .  S
Ni45         O49   1.973       .  S
Ni45         O47   1.969       .  S
O46         Ni51   1.993       .  S
C48          O49   1.288       .  A
C48        C1333   1.520       .  S
C53        C2308   1.468       .  S
C53          C54   1.401       .  A
C53          C58   1.397       .  A
C54          C55   1.400       .  A
C54          H59   1.084       .  S
C55        C2328   1.466       .  S
C55          C56   1.396       .  A
C56          C57   1.393       .  A
C56          H60   1.085       .  S
C57        C2321   1.463       .  S
C57          C58   1.395       .  A
C58          H61   1.084       .  S
C62        C2291   1.453       .  S
C62          C63   1.388   1_565  A
C62          C67   1.392   1_556  A
C63          C64   1.394       .  A
C63          H68   1.084       .  S
C64        C2278   1.460       .  S
C64          C65   1.396   1_556  A
C65          C66   1.401   1_545  A
C65          H69   1.084       .  S
C66        C2298   1.460       .  S
C66          C67   1.392       .  A
C67          H70   1.084       .  S
C71        C2258   1.460       .  S
C71          C72   1.391   1_655  A
C71          C76   1.393       .  A
C72          C73   1.389   1_554  A
C72          H77   1.085       .  S
C73        C2268   1.455       .  S
C73          C74   1.396       .  A
C74          C75   1.398       .  A
C74          H78   1.083       .  S
C75        C2248   1.472   1_455  S
C75          C76   1.405   1_456  A
C76          H79   1.084       .  S
C80        C2218   1.454       .  S
C80          C81   1.400   1_565  A
C80          C85   1.392   1_655  A
C81          C82   1.399       .  A
C81          H86   1.084       .  S
C82        C2238   1.461       .  S
C82          C83   1.395   1_655  A
C83          C84   1.385   1_545  A
C83          H87   1.085       .  S
C84        C2228   1.447       .  S
C84          C85   1.384       .  A
C85          H88   1.085       .  S
O89         Ni97   1.880       .  S
O89          C99   1.275       .  A
O90         Ni97   1.922       .  S
O90         C100   1.287       .  A
O91         Ni97   1.940       .  S
O91         C101   1.285       .  A
O92         Ni97   1.902       .  S
O92         C102   1.278       .  A
O93         Ni98   1.879       .  S
O93         C102   1.276       .  A
O94         Ni98   1.919       .  S
O94         C101   1.286       .  A
O95         Ni98   1.924       .  S
O95         C100   1.280       .  A
O96         Ni98   1.887       .  S
O96          C99   1.276       .  A
Ni97        Ni98   2.395       .  S
C99        C2231   1.432       .  S
C100        C272   1.500       .  S
C101        C324   1.501       .  S
C102       C2271   1.443       .  S
O103       Ni111   1.898       .  S
O103        C113   1.279       .  A
O104       Ni111   1.935       .  S
O104        C114   1.285       .  A
O105       Ni111   1.908       .  S
O105        C115   1.279       .  A
O106       Ni111   1.867       .  S
O106        C116   1.273       .  A
O107       Ni112   1.923       .  S
O107        C116   1.283       .  A
O108       Ni112   1.962       .  S
O108        C115   1.290       .  A
O109       Ni112   1.953       .  S
O109        C114   1.290       .  A
O110       Ni112   1.894       .  S
O110        C113   1.276       .  A
Ni111      Ni112   2.388       .  S
C113       C2261   1.446       .  S
C114        C540   1.518       .  S
C115        C369   1.513       .  S
C116       C2301   1.452       .  S
O117       Ni125   1.916       .  S
O117        C127   1.282       .  A
O118       Ni125   1.967       .  S
O118        C128   1.294       .  A
O119       Ni125   1.928       .  S
O119        C129   1.286       .  A
O120       Ni125   1.869       .  S
O120        C130   1.272       .  A
O121       Ni126   1.914       .  S
O121        C130   1.282       .  A
O122       Ni126   1.977       .  S
O122        C129   1.295       .  A
O123       Ni126   1.965       .  S
O123        C128   1.293       .  A
O124       Ni126   1.889       .  S
O124        C127   1.275       .  A
Ni125      Ni126   2.382       .  S
C127       C2331   1.452       .  S
C128        C858   1.553       .  S
C129        C343   1.538       .  S
C130       C2221   1.448       .  S
O131       Ni139   1.882       .  S
O131        C141   1.275       .  A
O132       Ni139   1.946       .  S
O132        C142   1.288       .  A
O133       Ni139   1.961       .  S
O133        C143   1.293       .  A
O134       Ni139   1.906       .  S
O134        C144   1.280       .  A
O135       Ni140   1.895       .  S
O135        C144   1.277       .  A
O136       Ni140   1.978       .  S
O136        C143   1.296       .  A
O137       Ni140   1.986       .  S
O137        C142   1.297       .  A
O138       Ni140   1.917       .  S
O138        C141   1.282       .  A
Ni139      Ni140   2.384       .  S
C141       C2251   1.455       .  S
C142        C822   1.558       .  S
C143        C284   1.563       .  S
C144       C2311   1.452       .  S
O145       Ni153   1.889       .  S
O145        C155   1.277       .  A
O146       Ni153   1.944       .  S
O146        C156   1.286       .  A
O147       Ni153   1.934       .  S
O147        C157   1.290       .  A
O148       Ni153   1.882       .  S
O148        C158   1.276       .  A
O149       Ni154   1.896       .  S
O149        C158   1.276       .  A
O150       Ni154   1.942       .  S
O150        C157   1.286       .  A
O151       Ni154   1.953       .  S
O151        C156   1.294       .  A
O152       Ni154   1.905       .  S
O152        C155   1.279       .  A
Ni153      Ni154   2.393       .  S
C155       C2318   1.448       .  S
C156        C388   1.526       .  S
C157        C235   1.521       .  S
C158       C2288   1.436       .  S
O159       Ni167   1.893       .  S
O159        C169   1.275       .  A
O160       Ni167   1.938       .  S
O160        C170   1.285       .  A
O161       Ni167   1.954       .  S
O161        C171   1.289       .  A
O162       Ni167   1.913       .  S
O162        C172   1.283       .  A
O163       Ni168   1.879       .  S
O163        C172   1.273       .  A
O164       Ni168   1.943       .  S
O164        C171   1.289       .  A
O165       Ni168   1.951       .  S
O165        C170   1.291       .  A
O166       Ni168   1.898       .  S
O166        C169   1.279       .  A
Ni167      Ni168   2.390       .  S
C169       C2281   1.441       .  S
C170       C1238   1.528       .  S
C171        C566   1.530       .  S
C172       C2241   1.455       .  S
O173       Ni179   1.922       .  S
O173        C194   1.276       .  A
O174       Ni197   1.960       .  S
O174        C183   1.274       .  A
O175       Ni179   1.920       .  S
O175       Ni197   1.930       .  S
O175       Ni191   1.928       .  S
O175        H198   0.966       .  S
C176        O193   1.299       .  A
C176        O185   1.269       .  A
C176       C1012   1.509       .  S
O177       Ni196   1.893       .  S
O177        C183   1.266       .  A
O178       Ni196   1.959       .  S
O178        C180   1.280       .  A
Ni179       O182   1.931       .  S
Ni179       O184   1.996       .  S
C180        O190   1.283       .  A
C180        C427   1.543       .  S
O181       Ni197   1.969       .  S
O181        C187   1.287       .  A
O182        C187   1.278       .  A
C183        C761   1.501       .  S
O184        C186   1.287       .  A
O185       Ni196   1.897       .  S
C186        O192   1.281       .  A
C186       C1277   1.565       .  S
C187        C669   1.526       .  S
H188        O189   0.966       .  S
O189       Ni197   1.933       .  S
O189       Ni191   1.945       .  S
O189       Ni196   1.914       .  S
O190       Ni191   1.993       .  S
Ni191       O195   1.981       .  S
Ni191       O193   1.995       .  S
O192       Ni197   1.996       .  S
C194        O195   1.287       .  A
C194       C1173   1.526       .  S
O199       Ni205   1.893       .  S
O199        C220   1.265       .  A
O200       Ni223   1.965       .  S
O200        C209   1.275       .  A
O201       Ni205   1.924       .  S
O201       Ni223   1.927       .  S
O201       Ni217   1.943       .  S
O201        H224   0.966       .  S
C202        O219   1.304       .  A
C202        O211   1.277       .  A
C202        C655   1.554       .  S
O203       Ni222   1.902       .  S
O203        C209   1.268       .  A
O204       Ni222   1.970       .  S
O204        C206   1.280       .  A
Ni205       O208   1.934       .  S
Ni205       O210   1.951       .  S
C206        O216   1.278       .  A
C206        C923   1.540       .  S
O207       Ni223   1.978       .  S
O207        C213   1.294       .  A
O208        C213   1.277       .  A
C209        C510   1.505       .  S
O210        C212   1.275       .  A
O211       Ni222   1.942       .  S
C212        O218   1.272       .  A
C212       C1172   1.520       .  S
C213       C1309   1.524       .  S
H214        O215   0.966       .  S
O215       Ni223   1.944       .  S
O215       Ni217   1.938       .  S
O215       Ni222   1.920       .  S
O216       Ni217   1.975       .  S
Ni217       O221   1.982       .  S
Ni217       O219   2.015       .  S
O218       Ni223   1.965       .  S
C220        O221   1.283       .  A
C220       C1067   1.513       .  S
O225       Ni231   1.906       .  S
O225        C246   1.267       .  A
O226       Ni249   1.971       .  S
O226        C235   1.287       .  A
O227       Ni231   1.924       .  S
O227       Ni249   1.948       .  S
O227       Ni243   1.935       .  S
O227        H250   0.966       .  S
C228        O245   1.291       .  A
C228        O237   1.274       .  A
C228        C627   1.541       .  S
O229       Ni248   1.935       .  S
O229        C235   1.276       .  A
O230       Ni248   1.976       .  S
O230        C232   1.285       .  A
Ni231       O234   1.898       .  S
Ni231       O236   1.950       .  S
C232        O242   1.286       .  A
C232        C788   1.549       .  S
O233       Ni249   1.981       .  S
O233        C239   1.281       .  A
O234        C239   1.264       .  A
O236        C238   1.282       .  A
O237       Ni248   1.921       .  S
C238        O244   1.286       .  A
C238        C496   1.524       .  S
C239        C961   1.514       .  S
H240        O241   0.966       .  S
O241       Ni249   1.919       .  S
O241       Ni243   1.943       .  S
O241       Ni248   1.922       .  S
O242       Ni243   2.001       .  S
Ni243       O247   1.987       .  S
Ni243       O245   1.997       .  S
O244       Ni249   1.996       .  S
C246        O247   1.294       .  A
C246       C1044   1.512       .  S
O251       Ni257   1.915   1_556  S
O251        C272   1.272       .  A
O252       Ni275   1.960       .  S
O252        C261   1.282       .  A
O253       Ni257   1.926   1_556  S
O253       Ni275   1.947   1_556  S
O253       Ni269   1.892       .  S
O253        H276   0.967       .  S
C254        O271   1.274       .  A
C254        O263   1.267       .  A
C254       C1108   1.487       .  S
O255       Ni274   1.915   1_554  S
O255        C261   1.272       .  A
O256       Ni274   1.966       .  S
O256        C258   1.282       .  A
Ni257       O260   1.883       .  S
Ni257       O262   1.983       .  S
C258        O268   1.286       .  A
C258        C626   1.548       .  S
O259       Ni275   1.956       .  S
O259        C265   1.274       .  A
O260        C265   1.263       .  A
C261        C760   1.500       .  S
O262        C264   1.288       .  A
O263       Ni274   1.904       .  S
C264        O270   1.291       .  A
C264       C1360   1.559       .  S
C265        C465   1.502       .  S
H266        O267   0.966       .  S
O267       Ni275   1.903       .  S
O267       Ni269   1.942   1_554  S
O267       Ni274   1.919   1_554  S
O268       Ni269   2.006       .  S
Ni269       O273   1.954       .  S
Ni269       O271   1.931       .  S
O270       Ni275   2.015       .  S
C272        O273   1.281       .  A
O277       Ni283   1.909   1_556  S
O277        C298   1.270       .  A
O278       Ni301   1.942       .  S
O278        C287   1.272       .  A
O279       Ni283   1.927   1_556  S
O279       Ni301   1.931   1_456  S
O279       Ni295   1.905       .  S
O279        H302   0.967   1_455  S
C280        O297   1.283       .  A
C280        O289   1.273       .  A
C280       C1109   1.492       .  S
O281       Ni300   1.901       .  S
O281        C287   1.267       .  A
O282       Ni300   1.964   1_556  S
O282        C284   1.275       .  A
Ni283       O286   1.909   1_455  S
Ni283       O288   1.982       .  S
C284        O294   1.286       .  A
O285       Ni301   1.939       .  S
O285        C291   1.279       .  A
O286        C291   1.273       .  A
C287        C802   1.485       .  S
O288        C290   1.282       .  A
O289       Ni300   1.914   1_456  S
C290        O296   1.287       .  A
C290       C1278   1.573       .  S
C291       C1200   1.496       .  S
H292        O293   0.966       .  S
O293       Ni301   1.911   1_455  S
O293       Ni295   1.933   1_554  S
O293       Ni300   1.925   1_455  S
O294       Ni295   2.017   1_655  S
Ni295       O299   1.949       .  S
Ni295       O297   1.939       .  S
O296       Ni301   2.020   1_455  S
C298        O299   1.276       .  A
C298        C697   1.497       .  S
O303       Ni309   1.913       .  S
O303        C324   1.269       .  A
O304       Ni327   1.998       .  S
O304        C313   1.294       .  A
O305       Ni309   1.915       .  S
O305       Ni327   1.956   1_565  S
O305       Ni321   1.935       .  S
O305        H328   0.964       .  S
C306        O323   1.286       .  A
C306        O315   1.267       .  A
C306       C1346   1.507       .  S
O307       Ni326   1.925       .  S
O307        C313   1.273       .  A
O308       Ni326   1.960       .  S
O308        C310   1.284       .  A
Ni309       O312   1.894       .  S
Ni309       O314   1.947       .  S
C310        O320   1.272       .  A
C310        C682   1.506       .  S
O311       Ni327   1.998   1_565  S
O311        C317   1.284       .  A
O312        C317   1.263       .  A
C313        C924   1.535       .  S
O314        C316   1.283       .  A
O315       Ni326   1.907       .  S
C316        O322   1.289       .  A
C316       C1094   1.523       .  S
C317        C497   1.534       .  S
H318        O319   0.969       .  S
O319       Ni327   1.918       .  S
O319       Ni321   1.941   1_545  S
O319       Ni326   1.918       .  S
O320       Ni321   1.957   1_545  S
Ni321       O325   1.964       .  S
Ni321       O323   1.978   1_565  S
O322       Ni327   2.000   1_565  S
C324        O325   1.286       .  A
O329       Ni335   1.897       .  S
O329        C350   1.265       .  A
O330       Ni353   1.959       .  S
O330        C339   1.269       .  A
O331       Ni335   1.924       .  S
O331       Ni353   1.928       .  S
O331       Ni347   1.959       .  S
O331        H354   0.966       .  S
C332        O349   1.308       .  A
C332        O341   1.280       .  A
C332        C720   1.563       .  S
O333       Ni352   1.882       .  S
O333        C339   1.265       .  A
O334       Ni352   1.964       .  S
O334        C336   1.279       .  A
Ni335       O338   1.938       .  S
Ni335       O340   1.953       .  S
C336        O346   1.277       .  A
C336       C1215   1.536       .  S
O337       Ni353   2.005       .  S
O337        C343   1.300       .  A
O338        C343   1.278       .  A
C339       C1080   1.499       .  S
O340        C342   1.277       .  A
O341       Ni352   1.943       .  S
C342        O348   1.264       .  A
C342        C960   1.509       .  S
H344        O345   0.966       .  S
O345       Ni353   1.962       .  S
O345       Ni347   1.920       .  S
O345       Ni352   1.918       .  S
O346       Ni347   1.974       .  S
Ni347       O351   1.970       .  S
Ni347       O349   2.031       .  S
O348       Ni353   1.939       .  S
C350        O351   1.282       .  A
C350        C450   1.506       .  S
O355       Ni361   1.911       .  S
O355        C376   1.274       .  A
O356       Ni379   1.951       .  S
O356        C365   1.273       .  A
O357       Ni361   1.916   1_655  S
O357       Ni379   1.926       .  S
O357       Ni373   1.927   1_655  S
O357        H380   0.966       .  S
C358        O375   1.292       .  A
C358        O367   1.274       .  A
C358       C1011   1.508       .  S
O359       Ni378   1.897       .  S
O359        C365   1.266       .  A
O360       Ni378   1.955       .  S
O360        C362   1.276       .  A
Ni361       O364   1.926   1_455  S
Ni361       O366   1.983       .  S
C362        O372   1.280       .  A
C362       C1214   1.535       .  S
O363       Ni379   1.970       .  S
O363        C369   1.291       .  A
O364        C369   1.277       .  A
C365        C803   1.492       .  S
O366        C368   1.284       .  A
O367       Ni378   1.924   1_455  S
C368        O374   1.279       .  A
C368       C1361   1.557       .  S
H370        O371   0.966       .  S
O371       Ni379   1.934   1_455  S
O371       Ni373   1.932       .  S
O371       Ni378   1.926   1_455  S
O372       Ni373   1.986   1_655  S
Ni373       O377   1.966       .  S
Ni373       O375   1.967       .  S
O374       Ni379   1.988   1_455  S
C376        O377   1.278       .  A
C376        C525   1.512       .  S
O381       Ni387   1.932       .  S
O381        C402   1.268       .  A
O382       Ni405   1.972   1_545  S
O382        C391   1.291       .  A
O383       Ni387   1.880       .  S
O383       Ni405   1.921   1_554  S
O383       Ni399   1.916   1_554  S
O383        H406   0.966       .  S
C384        O401   1.286       .  A
C384        O393   1.285       .  A
C384        C988   1.505       .  S
O385       Ni404   1.936       .  S
O385        C391   1.273       .  A
O386       Ni404   1.923   1_565  S
O386        C388   1.271       .  A
Ni387       O390   1.945       .  S
Ni387       O392   1.903   1_565  S
C388        O398   1.293       .  A
O389       Ni405   1.968   1_554  S
O389        C395   1.286       .  A
O390        C395   1.284       .  A
C391        C683   1.508       .  S
O392        C394   1.267       .  A
O393       Ni404   1.949       .  S
C394        O400   1.293       .  A
C394       C1332   1.522       .  S
C395        C464   1.507       .  S
H396        O397   0.966       .  S
O397       Ni405   1.913   1_545  S
O397       Ni399   1.906   1_545  S
O397       Ni404   1.869       .  S
O398       Ni399   2.000       .  S
Ni399       O403   1.969   1_556  S
Ni399       O401   1.961   1_565  S
O400       Ni405   2.005   1_544  S
C402        O403   1.286       .  A
C402        C817   1.504       .  S
C407       C2198   1.460       .  S
C407        C408   1.401       .  A
C407        C412   1.396       .  A
C408        C409   1.396       .  A
C408        H413   1.084       .  S
C409       C2208   1.464       .  S
C409        C410   1.398       .  A
C410        C411   1.387       .  A
C410        H414   1.085       .  S
C411       C2188   1.458       .  S
C411        C412   1.386       .  A
C412        H415   1.085       .  S
O416       Ni424   1.898       .  S
O416        C426   1.276       .  A
O417       Ni424   1.967       .  S
O417        C427   1.293       .  A
O418       Ni424   1.969       .  S
O418        C428   1.293       .  A
O419       Ni424   1.916       .  S
O419        C429   1.282       .  A
O420       Ni425   1.863       .  S
O420        C429   1.271       .  A
O421       Ni425   1.921       .  S
O421        C428   1.284       .  A
O422       Ni425   1.956       .  S
O422        C427   1.291       .  A
O423       Ni425   1.907       .  S
O423        C426   1.281       .  A
Ni424      Ni425   2.388       .  S
C426       C2178   1.450       .  S
C429       C2201   1.442       .  S
C430       C2148   1.453       .  S
C430        C431   1.405       .  A
C430        C435   1.387       .  A
C431        C432   1.392   1_565  A
C431        H436   1.084   1_565  S
C432       C2168   1.447       .  S
C432        C433   1.393       .  A
C433        C434   1.380   1_545  A
C433        H437   1.085       .  S
C434       C2158   1.431       .  S
C434        C435   1.385       .  A
C435        H438   1.085       .  S
O439       Ni447   1.892       .  S
O439        C449   1.277       .  A
O440       Ni447   1.925       .  S
O440        C450   1.285       .  A
O441       Ni447   1.909       .  S
O441        C451   1.281       .  A
O442       Ni447   1.881       .  S
O442        C452   1.276       .  A
O443       Ni448   1.908       .  S
O443        C452   1.280       .  A
O444       Ni448   1.960       .  S
O444        C451   1.290       .  A
O445       Ni448   1.945       .  S
O445        C450   1.288       .  A
O446       Ni448   1.892       .  S
O446        C449   1.273       .  A
Ni447      Ni448   2.391       .  S
C449       C2151   1.432       .  S
C451        C537   1.512       .  S
C452       C2138   1.452       .  S
O453       Ni461   1.910       .  S
O453        C463   1.283       .  A
O454       Ni461   1.950       .  S
O454        C464   1.286       .  A
O455       Ni461   1.918       .  S
O455        C465   1.285       .  A
O456       Ni461   1.881       .  S
O456        C466   1.273       .  A
O457       Ni462   1.889       .  S
O457        C466   1.277       .  A
O458       Ni462   1.934       .  S
O458        C465   1.285       .  A
O459       Ni462   1.927       .  S
O459        C464   1.286       .  A
O460       Ni462   1.881       .  S
O460        C463   1.274       .  A
Ni461      Ni462   2.396       .  S
C463       C2211   1.448       .  S
C466       C2161   1.425       .  S
C467       C2128   1.462       .  S
C467        C468   1.395   1_565  A
C467        C472   1.392       .  A
C468        C469   1.399       .  A
C468        H473   1.084       .  S
C469       C2121   1.455       .  S
C469        C470   1.395       .  A
C470        C471   1.391   1_545  A
C470        H474   1.084       .  S
C471       C2108   1.455       .  S
C471        C472   1.393       .  A
C472        H475   1.085       .  S
C476       C2141   1.455       .  S
C476        C477   1.386       .  A
C476        C481   1.394       .  A
C477        C478   1.395       .  A
C477        H482   1.085       .  S
C478       C2181   1.466       .  S
C478        C479   1.400       .  A
C479        C480   1.407       .  A
C479        H483   1.083       .  S
C480       C2098   1.476       .  S
C480        C481   1.400       .  A
C481        H484   1.084       .  S
O485       Ni493   1.894       .  S
O485        C495   1.278       .  A
O486       Ni493   1.937       .  S
O486        C496   1.285       .  A
O487       Ni493   1.939       .  S
O487        C497   1.289       .  A
O488       Ni493   1.894       .  S
O488        C498   1.277       .  A
O489       Ni494   1.914       .  S
O489        C498   1.281       .  A
O490       Ni494   1.969       .  S
O490        C497   1.291       .  A
O491       Ni494   1.957       .  S
O491        C496   1.289       .  A
O492       Ni494   1.899       .  S
O492        C495   1.277       .  A
Ni493      Ni494   2.387       .  S
C495       C2111   1.449       .  S
C498       C2101   1.459       .  S
O499       Ni507   1.898       .  S
O499        C509   1.280       .  A
O500       Ni507   1.949       .  S
O500        C510   1.288       .  A
O501       Ni507   1.939       .  S
O501        C511   1.286       .  A
O502       Ni507   1.886       .  S
O502        C512   1.277       .  A
O503       Ni508   1.902       .  S
O503        C512   1.278       .  A
O504       Ni508   1.928       .  S
O504        C511   1.287       .  A
O505       Ni508   1.911       .  S
O505        C510   1.283       .  A
O506       Ni508   1.887       .  S
O506        C509   1.274       .  A
Ni507      Ni508   2.395       .  S
C509       C2171   1.440       .  S
C512       C2118   1.443       .  S
O513       Ni521   1.897       .  S
O513        C523   1.277       .  A
O514       Ni521   1.945       .  S
O514        C524   1.286       .  A
O515       Ni521   1.951       .  S
O515        C525   1.289       .  A
O516       Ni521   1.906       .  S
O516        C526   1.281       .  A
O517       Ni522   1.884       .  S
O517        C526   1.275       .  A
O518       Ni522   1.921       .  S
O518        C525   1.285       .  A
O519       Ni522   1.921       .  S
O519        C524   1.285       .  A
O520       Ni522   1.883       .  S
O520        C523   1.276       .  A
Ni521      Ni522   2.393       .  S
C523       C2191   1.437       .  S
C524        C855   1.509       .  S
C526       C2131   1.452       .  S
O527       Ni533   1.912   1_545  S
O527        C548   1.270       .  A
O528       Ni551   1.971       .  S
O528        C537   1.285       .  A
O529       Ni533   1.919   1_545  S
O529       Ni551   1.941   1_545  S
O529       Ni545   1.910       .  S
O529        H552   0.966       .  S
C530        O547   1.280       .  A
C530        O539   1.270       .  A
C530       C1229   1.513       .  S
O531       Ni550   1.923   1_565  S
O531        C537   1.272       .  A
O532       Ni550   1.978       .  S
O532        C534   1.286       .  A
Ni533       O536   1.909       .  S
Ni533       O538   1.946       .  S
C534        O544   1.284       .  A
C534        C909   1.544       .  S
O535       Ni551   1.955       .  S
O535        C541   1.283       .  A
O536        C541   1.268       .  A
O538        C540   1.277       .  A
O539       Ni550   1.910       .  S
C540        O546   1.279       .  A
C541        C816   1.500       .  S
H542        O543   0.967       .  S
O543       Ni551   1.912       .  S
O543       Ni545   1.947   1_565  S
O543       Ni550   1.926   1_565  S
O544       Ni545   1.990       .  S
Ni545       O549   1.967       .  S
Ni545       O547   1.963       .  S
O546       Ni551   1.979       .  S
C548        O549   1.283       .  A
C548       C1373   1.503       .  S
O553       Ni559   1.904       .  S
O553        C574   1.267       .  A
O554       Ni577   1.962       .  S
O554        C563   1.281       .  A
O555       Ni559   1.914   1_554  S
O555       Ni577   1.940       .  S
O555       Ni571   1.904   1_554  S
O555        H578   0.967       .  S
C556        O573   1.283       .  A
C556        O565   1.268       .  A
C556        C640   1.506       .  S
O557       Ni576   1.922       .  S
O557        C563   1.270       .  A
O558       Ni576   1.948       .  S
O558        C560   1.281       .  A
Ni559       O562   1.904   1_556  S
Ni559       O564   1.949       .  S
C560        O570   1.281       .  A
C560        C774   1.511       .  S
O561       Ni577   1.957       .  S
O561        C567   1.276       .  A
O562        C567   1.268       .  A
C563       C1201   1.505       .  S
O564        C566   1.277       .  A
O565       Ni576   1.909   1_556  S
C566        O572   1.285       .  A
C567       C1376   1.505       .  S
H568        O569   0.965       .  S
O569       Ni577   1.924   1_556  S
O569       Ni571   1.955       .  S
O569       Ni576   1.918   1_556  S
O570       Ni571   1.978   1_554  S
Ni571       O575   1.987       .  S
Ni571       O573   1.964       .  S
O572       Ni577   1.996   1_556  S
C574        O575   1.290       .  A
C574        C989   1.513       .  S
C579       C2078   1.463       .  S
C579        C580   1.393       .  A
C579        C584   1.399       .  A
C580        C581   1.387       .  A
C580        H585   1.084       .  S
C581       C2088   1.453       .  S
C581        C582   1.393       .  A
C582        C583   1.397       .  A
C582        H586   1.084       .  S
C583       C2068   1.467       .  S
C583        C584   1.401       .  A
C584        H587   1.084       .  S
C588       C2038   1.462       .  S
C588        C589   1.392       .  A
C588        C593   1.396       .  A
C589        C590   1.399       .  A
C589        H594   1.085       .  S
C590       C2061   1.461       .  S
C590        C591   1.399   1_556  A
C591        C592   1.399       .  A
C591        H595   1.084       .  S
C592       C2048   1.467       .  S
C592        C593   1.392   1_554  A
C593        H596   1.085   1_556  S
C597       C2018   1.470       .  S
C597        C598   1.407       .  A
C597        C602   1.398       .  A
C598        C599   1.403       .  A
C598        H603   1.083       .  S
C599       C2028   1.473       .  S
C599        C600   1.397       .  A
C600        C601   1.384       .  A
C600        H604   1.085       .  S
C601       C2011   1.452       .  S
C601        C602   1.389       .  A
C602        H605   1.084       .  S
C606       C1998   1.466       .  S
C606        C607   1.397       .  A
C606        C611   1.403       .  A
C607        C608   1.392   1_554  A
C607        H612   1.084       .  S
C608       C1988   1.456       .  S
C608        C609   1.387       .  A
C609        C610   1.395       .  A
C609        H613   1.084       .  S
C610       C1978   1.469       .  S
C610        C611   1.402   1_556  A
C611        H614   1.084       .  S
O615       Ni623   1.893       .  S
O615        C625   1.276       .  A
O616       Ni623   1.964       .  S
O616        C626   1.292       .  A
O617       Ni623   1.971       .  S
O617        C627   1.293       .  A
O618       Ni623   1.919       .  S
O618        C628   1.284       .  A
O619       Ni624   1.875       .  S
O619        C628   1.273       .  A
O620       Ni624   1.935       .  S
O620        C627   1.289       .  A
O621       Ni624   1.962       .  S
O621        C626   1.292       .  A
O622       Ni624   1.908       .  S
O622        C625   1.280       .  A
Ni623      Ni624   2.387       .  S
C625       C2021   1.447       .  S
C628       C1981   1.456       .  S
O629       Ni637   1.881       .  S
O629        C639   1.275       .  A
O630       Ni637   1.913       .  S
O630        C640   1.281       .  A
O631       Ni637   1.935       .  S
O631        C641   1.287       .  A
O632       Ni637   1.900       .  S
O632        C642   1.279       .  A
O633       Ni638   1.897       .  S
O633        C642   1.276       .  A
O634       Ni638   1.942       .  S
O634        C641   1.287       .  A
O635       Ni638   1.949       .  S
O635        C640   1.288       .  A
O636       Ni638   1.905       .  S
O636        C639   1.279       .  A
Ni637      Ni638   2.391       .  S
C639       C2008   1.447       .  S
C641        C829   1.509       .  S
C642       C2041   1.445       .  S
O643       Ni651   1.908       .  S
O643        C653   1.281       .  A
O644       Ni651   1.982       .  S
O644        C654   1.299       .  A
O645       Ni651   1.967       .  S
O645        C655   1.289       .  A
O646       Ni651   1.885       .  S
O646        C656   1.274       .  A
O647       Ni652   1.919       .  S
O647        C656   1.284       .  A
O648       Ni652   1.965       .  S
O648        C655   1.294       .  A
O649       Ni652   1.946       .  S
O649        C654   1.286       .  A
O650       Ni652   1.884       .  S
O650        C653   1.274       .  A
Ni651      Ni652   2.384       .  S
C653       C2081   1.448       .  S
C656       C2031   1.460       .  S
O657       Ni665   1.910       .  S
O657        C667   1.281       .  A
O658       Ni665   1.961       .  S
O658        C668   1.291       .  A
O659       Ni665   1.930       .  S
O659        C669   1.287       .  A
O660       Ni665   1.881       .  S
O660        C670   1.274       .  A
O661       Ni666   1.914       .  S
O661        C670   1.282       .  A
O662       Ni666   1.956       .  S
O662        C669   1.290       .  A
O663       Ni666   1.951       .  S
O663        C668   1.289       .  A
O664       Ni666   1.892       .  S
O664        C667   1.277       .  A
Ni665      Ni666   2.386       .  S
C667       C2001   1.458       .  S
C670       C2051   1.453       .  S
O671       Ni679   1.901       .  S
O671        C681   1.277       .  A
O672       Ni679   1.943       .  S
O672        C682   1.290       .  A
O673       Ni679   1.944       .  S
O673        C683   1.285       .  A
O674       Ni679   1.906       .  S
O674        C684   1.281       .  A
O675       Ni680   1.888       .  S
O675        C684   1.276       .  A
O676       Ni680   1.924       .  S
O676        C683   1.287       .  A
O677       Ni680   1.924       .  S
O677        C682   1.282       .  A
O678       Ni680   1.895       .  S
O678        C681   1.278       .  A
Ni679      Ni680   2.393       .  S
C681       C2058   1.445       .  S
C684       C2071   1.453       .  S
O685       Ni693   1.897       .  S
O685        C695   1.277       .  A
O686       Ni693   1.924       .  S
O686        C696   1.288       .  A
O687       Ni693   1.933       .  S
O687        C697   1.283       .  A
O688       Ni693   1.901       .  S
O688        C698   1.277       .  A
O689       Ni694   1.881       .  S
O689        C698   1.277       .  A
O690       Ni694   1.919       .  S
O690        C697   1.285       .  A
O691       Ni694   1.928       .  S
O691        C696   1.280       .  A
O692       Ni694   1.888       .  S
O692        C695   1.276       .  A
Ni693      Ni694   2.396       .  S
C695       C1991   1.440       .  S
C696       C1252   1.497       .  S
C698       C2091   1.443       .  S
C699       C1948   1.464       .  S
C699        C700   1.397       .  A
C699        C704   1.399       .  A
C700        C701   1.390       .  A
C700        H705   1.085       .  S
C701       C1958   1.454       .  S
C701        C702   1.392       .  A
C702        C703   1.389       .  A
C702        H706   1.085       .  S
C703       C1968   1.455       .  S
C703        C704   1.399       .  A
C704        H707   1.084       .  S
O708       Ni716   1.890       .  S
O708        C718   1.274       .  A
O709       Ni716   1.969       .  S
O709        C719   1.293       .  A
O710       Ni716   1.991       .  S
O710        C720   1.294       .  A
O711       Ni716   1.919       .  S
O711        C721   1.283       .  A
O712       Ni717   1.880       .  S
O712        C721   1.273       .  A
O713       Ni717   1.946       .  S
O713        C720   1.289       .  A
O714       Ni717   1.983       .  S
O714        C719   1.297       .  A
O715       Ni717   1.920       .  S
O715        C718   1.282       .  A
Ni716      Ni717   2.377       .  S
C718       C1951   1.451       .  S
C721       C1938   1.457       .  S
C722       C1921   1.461       .  S
C722        C723   1.395   1_554  A
C722        C727   1.393       .  A
C723        C724   1.396       .  A
C723        H728   1.083       .  S
C724       C1928   1.467       .  S
C724        C725   1.399       .  A
C725        C726   1.399   1_556  A
C725        H729   1.084       .  S
C726       C1911   1.466       .  S
C726        C727   1.396       .  A
C727        H730   1.084       .  S
C731       C1878   1.465       .  S
C731        C732   1.397   1_554  A
C731        C736   1.396       .  A
C732        C733   1.394       .  A
C732        H737   1.083       .  S
C733       C1901   1.465       .  S
C733        C734   1.395       .  A
C734        C735   1.395   1_556  A
C734        H738   1.084       .  S
C735       C1891   1.458       .  S
C735        C736   1.395       .  A
C736        H739   1.084       .  S
C740       C1941   1.468       .  S
C740        C741   1.403       .  A
C740        C745   1.397       .  A
C741        C742   1.402       .  A
C741        H746   1.084       .  S
C742       C1868   1.464       .  S
C742        C743   1.395       .  A
C743        C744   1.390       .  A
C743        H747   1.085       .  S
C744       C1858   1.459       .  S
C744        C745   1.389       .  A
C745        H748   1.084       .  S
O749       Ni757   1.899       .  S
O749        C759   1.278       .  A
O750       Ni757   1.943       .  S
O750        C760   1.285       .  A
O751       Ni757   1.928       .  S
O751        C761   1.288       .  A
O752       Ni757   1.887       .  S
O752        C762   1.275       .  A
O753       Ni758   1.906       .  S
O753        C762   1.280       .  A
O754       Ni758   1.935       .  S
O754        C761   1.283       .  A
O755       Ni758   1.913       .  S
O755        C760   1.285       .  A
O756       Ni758   1.886       .  S
O756        C759   1.275       .  A
Ni757      Ni758   2.394       .  S
C759       C1861   1.441       .  S
C762       C1881   1.447       .  S
O763       Ni771   1.913       .  S
O763        C773   1.282       .  A
O764       Ni771   1.943       .  S
O764        C774   1.286       .  A
O765       Ni771   1.912       .  S
O765        C775   1.282       .  A
O766       Ni771   1.884       .  S
O766        C776   1.276       .  A
O767       Ni772   1.909       .  S
O767        C776   1.281       .  A
O768       Ni772   1.954       .  S
O768        C775   1.290       .  A
O769       Ni772   1.935       .  S
O769        C774   1.287       .  A
O770       Ni772   1.887       .  S
O770        C773   1.275       .  A
Ni771      Ni772   2.390       .  S
C773       C1871   1.453       .  S
C776       C1908   1.456       .  S
O777       Ni785   1.893       .  S
O777        C787   1.278       .  A
O778       Ni785   1.963       .  S
O778        C788   1.292       .  A
O779       Ni785   1.954       .  S
O779        C789   1.291       .  A
O780       Ni785   1.896       .  S
O780        C790   1.278       .  A
O781       Ni786   1.897       .  S
O781        C790   1.277       .  A
O782       Ni786   1.962       .  S
O782        C789   1.292       .  A
O783       Ni786   1.961       .  S
O783        C788   1.293       .  A
O784       Ni786   1.903       .  S
O784        C787   1.279       .  A
Ni785      Ni786   2.388       .  S
C787       C1931   1.457       .  S
C789        C826   1.548       .  S
C790       C1898   1.447       .  S
O791       Ni799   1.894       .  S
O791        C801   1.277       .  A
O792       Ni799   1.923       .  S
O792        C802   1.281       .  A
O793       Ni799   1.921       .  S
O793        C803   1.286       .  A
O794       Ni799   1.896       .  S
O794        C804   1.277       .  A
O795       Ni800   1.896       .  S
O795        C804   1.278       .  A
O796       Ni800   1.925       .  S
O796        C803   1.281       .  A
O797       Ni800   1.918       .  S
O797        C802   1.285       .  A
O798       Ni800   1.887       .  S
O798        C801   1.276       .  A
Ni799      Ni800   2.398       .  S
C801       C1961   1.439       .  S
C804       C1918   1.444       .  S
O805       Ni813   1.905       .  S
O805        C815   1.279       .  A
O806       Ni813   1.934       .  S
O806        C816   1.283       .  A
O807       Ni813   1.922       .  S
O807        C817   1.287       .  A
O808       Ni813   1.887       .  S
O808        C818   1.276       .  A
O809       Ni814   1.905       .  S
O809        C818   1.279       .  A
O810       Ni814   1.946       .  S
O810        C817   1.284       .  A
O811       Ni814   1.926       .  S
O811        C816   1.285       .  A
O812       Ni814   1.885       .  S
O812        C815   1.276       .  A
Ni813      Ni814   2.391       .  S
C815       C1888   1.447       .  S
C818       C1971   1.442       .  S
O819       Ni825   1.887       .  S
O819        C840   1.264       .  A
O820       Ni843   1.956       .  S
O820        C829   1.283       .  A
O821       Ni825   1.917       .  S
O821       Ni843   1.936       .  S
O821       Ni837   1.951       .  S
O821        H844   0.966       .  S
C822        O839   1.298       .  A
C822        O831   1.282       .  A
O823       Ni842   1.933       .  S
O823        C829   1.276       .  A
O824       Ni842   1.979       .  S
O824        C826   1.284       .  A
Ni825       O828   1.901       .  S
Ni825       O830   1.948       .  S
C826        O836   1.279       .  A
O827       Ni843   1.992       .  S
O827        C833   1.284       .  A
O828        C833   1.263       .  A
O830        C832   1.281       .  A
O831       Ni842   1.946       .  S
C832        O838   1.284       .  A
C832       C1186   1.513       .  S
C833        C947   1.523       .  S
H834        O835   0.966       .  S
O835       Ni843   1.920       .  S
O835       Ni837   1.929       .  S
O835       Ni842   1.917       .  S
O836       Ni837   1.984       .  S
Ni837       O841   1.981       .  S
Ni837       O839   2.005       .  S
O838       Ni843   1.984       .  S
C840        O841   1.290       .  A
C840       C1081   1.501       .  S
O845       Ni851   1.905       .  S
O845        C866   1.270       .  A
O846       Ni869   1.965       .  S
O846        C855   1.276       .  A
O847       Ni851   1.921   1_455  S
O847       Ni869   1.929   1_545  S
O847       Ni863   1.925   1_455  S
O847        H870   0.966       .  S
C848        O865   1.293       .  A
C848        O857   1.271       .  A
C848       C1228   1.505       .  S
O849       Ni868   1.901   1_565  S
O849        C855   1.267       .  A
O850       Ni868   1.966       .  S
O850        C852   1.279       .  A
Ni851       O854   1.931   1_645  S
Ni851       O856   1.977   1_545  S
C852        O862   1.275       .  A
C852       C1310   1.530       .  S
O853       Ni869   1.967       .  S
O853        C859   1.289       .  A
O854        C859   1.277       .  A
O856        C858   1.282       .  A
O857       Ni868   1.919   1_655  S
C858        O864   1.280       .  A
C859       C1096   1.522       .  S
H860        O861   0.966       .  S
O861       Ni869   1.926   1_655  S
O861       Ni863   1.936   1_565  S
O861       Ni868   1.927   1_665  S
O862       Ni863   1.968   1_455  S
Ni863       O867   1.974       .  S
Ni863       O865   1.967       .  S
O864       Ni869   1.990   1_655  S
C866        O867   1.280       .  A
C866        C974   1.514       .  S
C871       C1831   1.460       .  S
C871        C872   1.392   1_545  A
C871        C876   1.395       .  A
C872        C873   1.391       .  A
C872        H877   1.085       .  S
C873       C1848   1.456       .  S
C873        C874   1.394       .  A
C874        C875   1.398   1_565  A
C874        H878   1.084       .  S
C875       C1838   1.467       .  S
C875        C876   1.400       .  A
C876        H879   1.083       .  S
C880       C1818   1.458       .  S
C880        C881   1.393       .  A
C880        C885   1.390       .  A
C881        C882   1.394   1_545  A
C881        H886   1.084   1_545  S
C882       C1811   1.456       .  S
C882        C883   1.394       .  A
C883        C884   1.395   1_565  A
C883        H887   1.084       .  S
C884       C1798   1.458       .  S
C884        C885   1.394       .  A
C885        H888   1.083       .  S
C889       C1778   1.464       .  S
C889        C890   1.403       .  A
C889        C894   1.397       .  A
C890        C891   1.397       .  A
C890        H895   1.083       .  S
C891       C1788   1.460       .  S
C891        C892   1.390       .  A
C892        C893   1.386       .  A
C892        H896   1.085       .  S
C893       C1771   1.447       .  S
C893        C894   1.387       .  A
C894        H897   1.084       .  S
O898       Ni906   1.880       .  S
O898        C908   1.275       .  A
O899       Ni906   1.947       .  S
O899        C909   1.289       .  A
O900       Ni906   1.958       .  S
O900        C910   1.292       .  A
O901       Ni906   1.904       .  S
O901        C911   1.281       .  A
O902       Ni907   1.880       .  S
O902        C911   1.275       .  A
O903       Ni907   1.949       .  S
O903        C910   1.289       .  A
O904       Ni907   1.962       .  S
O904        C909   1.293       .  A
O905       Ni907   1.910       .  S
O905        C908   1.281       .  A
Ni906      Ni907   2.389       .  S
C908       C1781   1.448       .  S
C911       C1801   1.451       .  S
O912       Ni920   1.889       .  S
O912        C922   1.276       .  A
O913       Ni920   1.942       .  S
O913        C923   1.285       .  A
O914       Ni920   1.941       .  S
O914        C924   1.292       .  A
O915       Ni920   1.899       .  S
O915        C925   1.279       .  A
O916       Ni921   1.881       .  S
O916        C925   1.274       .  A
O917       Ni921   1.951       .  S
O917        C924   1.287       .  A
O918       Ni921   1.973       .  S
O918        C923   1.297       .  A
O919       Ni921   1.903       .  S
O919        C922   1.280       .  A
Ni920      Ni921   2.392       .  S
C922       C1828   1.445       .  S
C925       C1768   1.437       .  S
C926       C1738   1.458       .  S
C926        C927   1.393       .  A
C926        C931   1.393       .  A
C927        C928   1.389       .  A
C927        H932   1.086       .  S
C928       C1761   1.460       .  S
C928        C929   1.397       .  A
C929        C930   1.399       .  A
C929        H933   1.084       .  S
C930       C1748   1.466       .  S
C930        C931   1.401       .  A
C931        H934   1.085       .  S
O935       Ni943   1.920       .  S
O935        C945   1.283       .  A
O936       Ni943   1.965       .  S
O936        C946   1.290       .  A
O937       Ni943   1.932       .  S
O937        C947   1.289       .  A
O938       Ni943   1.883       .  S
O938        C948   1.273       .  A
O939       Ni944   1.904       .  S
O939        C948   1.280       .  A
O940       Ni944   1.955       .  S
O940        C947   1.287       .  A
O941       Ni944   1.926       .  S
O941        C946   1.286       .  A
O942       Ni944   1.875       .  S
O942        C945   1.272       .  A
Ni943      Ni944   2.388       .  S
C945       C1741   1.447       .  S
C948       C1791   1.439       .  S
O949       Ni957   1.896       .  S
O949        C959   1.278       .  A
O950       Ni957   1.931       .  S
O950        C960   1.285       .  A
O951       Ni957   1.922       .  S
O951        C961   1.287       .  A
O952       Ni957   1.882       .  S
O952        C962   1.275       .  A
O953       Ni958   1.906       .  S
O953        C962   1.280       .  A
O954       Ni958   1.953       .  S
O954        C961   1.287       .  A
O955       Ni958   1.938       .  S
O955        C960   1.287       .  A
O956       Ni958   1.890       .  S
O956        C959   1.277       .  A
Ni957      Ni958   2.391       .  S
C959       C1851   1.446       .  S
C962       C1808   1.449       .  S
O963       Ni971   1.885       .  S
O963        C973   1.277       .  A
O964       Ni971   1.916       .  S
O964        C974   1.284       .  A
O965       Ni971   1.914       .  S
O965        C975   1.283       .  A
O966       Ni971   1.878       .  S
O966        C976   1.274       .  A
O967       Ni972   1.906       .  S
O967        C976   1.280       .  A
O968       Ni972   1.958       .  S
O968        C975   1.291       .  A
O969       Ni972   1.960       .  S
O969        C974   1.290       .  A
O970       Ni972   1.898       .  S
O970        C973   1.277       .  A
Ni971      Ni972   2.395       .  S
C973       C1758   1.438       .  S
C975       C1241   1.516       .  S
C976       C1821   1.440       .  S
O977       Ni985   1.894       .  S
O977        C987   1.277       .  A
O978       Ni985   1.941       .  S
O978        C988   1.291       .  A
O979       Ni985   1.952       .  S
O979        C989   1.287       .  A
O980       Ni985   1.905       .  S
O980        C990   1.279       .  A
O981       Ni986   1.891       .  S
O981        C990   1.278       .  A
O982       Ni986   1.919       .  S
O982        C989   1.287       .  A
O983       Ni986   1.924       .  S
O983        C988   1.278       .  A
O984       Ni986   1.887       .  S
O984        C987   1.276       .  A
Ni985      Ni986   2.394       .  S
C987       C1751   1.439       .  S
C990       C1841   1.453       .  S
C991       C1728   1.448       .  S
C991        C992   1.392   1_455  A
C991        C996   1.396       .  A
C992        C993   1.392       .  A
C992        H997   1.085       .  S
C993       C1718   1.461       .  S
C993        C994   1.396       .  A
C994        C995   1.391   1_655  A
C994        H998   1.084       .  S
C995       C1711   1.462       .  S
C995        C996   1.395       .  A
C996        H999   1.084       .  S
O1000     Ni1008   1.890       .  S
O1000      C1010   1.276       .  A
O1001     Ni1008   1.939       .  S
O1001      C1011   1.290       .  A
O1002     Ni1008   1.953       .  S
O1002      C1012   1.285       .  A
O1003     Ni1008   1.912       .  S
O1003      C1013   1.281       .  A
O1004     Ni1009   1.878       .  S
O1004      C1013   1.273       .  A
O1005     Ni1009   1.917       .  S
O1005      C1012   1.286       .  A
O1006     Ni1009   1.940       .  S
O1006      C1011   1.284       .  A
O1007     Ni1009   1.899       .  S
O1007      C1010   1.277       .  A
Ni1008    Ni1009   2.389       .  S
C1010      C1698   1.442       .  S
C1013      C1708   1.444       .  S
C1014      C1668   1.462       .  S
C1014      C1015   1.392       .  A
C1014      C1019   1.400       .  A
C1015      C1016   1.391       .  A
C1015      H1020   1.085       .  S
C1016      C1678   1.444       .  S
C1016      C1017   1.389       .  A
C1017      C1018   1.392       .  A
C1017      H1021   1.085       .  S
C1018      C1688   1.460       .  S
C1018      C1019   1.394       .  A
C1019      H1022   1.084       .  S
C1023      C1648   1.463       .  S
C1023      C1024   1.397       .  A
C1023      C1028   1.394       .  A
C1024      C1025   1.391       .  A
C1024      H1029   1.084       .  S
C1025      C1701   1.462       .  S
C1025      C1026   1.395       .  A
C1026      C1027   1.395       .  A
C1026      H1030   1.084       .  S
C1027      C1661   1.458       .  S
C1027      C1028   1.396       .  A
C1028      H1031   1.084       .  S
O1032     Ni1040   1.884       .  S
O1032      C1042   1.275       .  A
O1033     Ni1040   1.931       .  S
O1033      C1043   1.290       .  A
O1034     Ni1040   1.940       .  S
O1034      C1044   1.282       .  A
O1035     Ni1040   1.895       .  S
O1035      C1045   1.277       .  A
O1036     Ni1041   1.897       .  S
O1036      C1045   1.278       .  A
O1037     Ni1041   1.932       .  S
O1037      C1044   1.290       .  A
O1038     Ni1041   1.933       .  S
O1038      C1043   1.282       .  A
O1039     Ni1041   1.892       .  S
O1039      C1042   1.277       .  A
Ni1040    Ni1041   2.394       .  S
C1042      C1671   1.438       .  S
C1045      C1651   1.443       .  S
C1046      C1628   1.450       .  S
C1046      C1047   1.396       .  A
C1046      C1051   1.396   1_455  A
C1047      C1048   1.395       .  A
C1047      H1052   1.084       .  S
C1048      C1638   1.441       .  S
C1048      C1049   1.381   1_455  A
C1049      C1050   1.378       .  A
C1049      H1053   1.086       .  S
C1050      C1618   1.427       .  S
C1050      C1051   1.381       .  A
C1051      H1054   1.085       .  S
O1055     Ni1063   1.900       .  S
O1055      C1065   1.279       .  A
O1056     Ni1063   1.954       .  S
O1056      C1066   1.290       .  A
O1057     Ni1063   1.940       .  S
O1057      C1067   1.285       .  A
O1058     Ni1063   1.884       .  S
O1058      C1068   1.274       .  A
O1059     Ni1064   1.887       .  S
O1059      C1068   1.278       .  A
O1060     Ni1064   1.924       .  S
O1060      C1067   1.287       .  A
O1061     Ni1064   1.932       .  S
O1061      C1066   1.281       .  A
O1062     Ni1064   1.890       .  S
O1062      C1065   1.276       .  A
Ni1063    Ni1064   2.395       .  S
C1065      C1658   1.442       .  S
C1066      C1244   1.520       .  S
C1068      C1631   1.434       .  S
O1069     Ni1077   1.894       .  S
O1069      C1079   1.277       .  A
O1070     Ni1077   1.951       .  S
O1070      C1080   1.290       .  A
O1071     Ni1077   1.947       .  S
O1071      C1081   1.285       .  A
O1072     Ni1077   1.886       .  S
O1072      C1082   1.277       .  A
O1073     Ni1078   1.896       .  S
O1073      C1082   1.279       .  A
O1074     Ni1078   1.905       .  S
O1074      C1081   1.284       .  A
O1075     Ni1078   1.890       .  S
O1075      C1080   1.276       .  A
O1076     Ni1078   1.864       .  S
O1076      C1079   1.270       .  A
Ni1077    Ni1078   2.398       .  S
C1079      C1621   1.417       .  S
C1082      C1721   1.446       .  S
O1083     Ni1091   1.893       .  S
O1083      C1093   1.277       .  A
O1084     Ni1091   1.956       .  S
O1084      C1094   1.289       .  A
O1085     Ni1091   1.909       .  S
O1085      C1095   1.280       .  A
O1086     Ni1091   1.951       .  S
O1086      C1096   1.288       .  A
O1087     Ni1092   1.926       .  S
O1087      C1096   1.284       .  A
O1088     Ni1092   1.882       .  S
O1088      C1095   1.275       .  A
O1089     Ni1092   1.942       .  S
O1089      C1094   1.287       .  A
O1090     Ni1092   1.895       .  S
O1090      C1093   1.277       .  A
Ni1091    Ni1092   2.390       .  S
C1093      C1731   1.440       .  S
C1095      C1691   1.447       .  S
O1097     Ni1105   1.863       .  S
O1097      C1107   1.271       .  A
O1098     Ni1105   1.908       .  S
O1098      C1108   1.281       .  A
O1099     Ni1105   1.929       .  S
O1099      C1109   1.284       .  A
O1100     Ni1105   1.898       .  S
O1100      C1110   1.279       .  A
O1101     Ni1106   1.879       .  S
O1101      C1110   1.273       .  A
O1102     Ni1106   1.914       .  S
O1102      C1109   1.284       .  A
O1103     Ni1106   1.930       .  S
O1103      C1108   1.285       .  A
O1104     Ni1106   1.896       .  S
O1104      C1107   1.278       .  A
Ni1105    Ni1106   2.399       .  S
C1107      C1641   1.421       .  S
C1110      C1681   1.433       .  S
C1111      C1598   1.452       .  S
C1111      C1112   1.385       .  A
C1111      C1116   1.401       .  A
C1112      C1113   1.393       .  A
C1112      H1117   1.085       .  S
C1113      C1608   1.438       .  S
C1113      C1114   1.384       .  A
C1114      C1115   1.395       .  A
C1114      H1118   1.085       .  S
C1115      C1588   1.442       .  S
C1115      C1116   1.386       .  A
C1116      H1119   1.084       .  S
O1120     Ni1128   1.907       .  S
O1120      C1130   1.282       .  A
O1121     Ni1128   1.948       .  S
O1121      C1131   1.285       .  A
O1122     Ni1128   1.915       .  S
O1122      C1132   1.285       .  A
O1123     Ni1128   1.879       .  S
O1123      C1133   1.273       .  A
O1124     Ni1129   1.917       .  S
O1124      C1133   1.282       .  A
O1125     Ni1129   1.963       .  S
O1125      C1132   1.290       .  A
O1126     Ni1129   1.932       .  S
O1126      C1131   1.290       .  A
O1127     Ni1129   1.880       .  S
O1127      C1130   1.271       .  A
Ni1128    Ni1129   2.391       .  S
C1130      C1601   1.436       .  S
C1133      C1578   1.442       .  S
C1134      C1558   1.470       .  S
C1134      C1135   1.398       .  A
C1134      C1139   1.401       .  A
C1135      C1136   1.400       .  A
C1135      H1140   1.082       .  S
C1136      C1581   1.464       .  S
C1136      C1137   1.388       .  A
C1137      C1138   1.392       .  A
C1137      H1141   1.084       .  S
C1138      C1568   1.458       .  S
C1138      C1139   1.395       .  A
C1139      H1142   1.083       .  S
C1143      C1528   1.455       .  S
C1143      C1144   1.394   1_655  A
C1143      C1148   1.398       .  A
C1144      C1145   1.387       .  A
C1144      H1149   1.085       .  S
C1145      C1548   1.457       .  S
C1145      C1146   1.395       .  A
C1146      C1147   1.390   1_455  A
C1146      H1150   1.084       .  S
C1147      C1538   1.459       .  S
C1147      C1148   1.401       .  A
C1148      H1151   1.084       .  S
C1152      C1518   1.464       .  S
C1152      C1153   1.397       .  A
C1152      C1157   1.393       .  A
C1153      C1154   1.401   1_455  A
C1153      H1158   1.083       .  S
C1154      C1508   1.459       .  S
C1154      C1155   1.391       .  A
C1155      C1156   1.390       .  A
C1155      H1159   1.085       .  S
C1156      C1498   1.451       .  S
C1156      C1157   1.392   1_655  A
C1157      H1160   1.085       .  S
O1161     Ni1169   1.892       .  S
O1161      C1171   1.277       .  A
O1162     Ni1169   1.948       .  S
O1162      C1172   1.291       .  A
O1163     Ni1169   1.955       .  S
O1163      C1173   1.289       .  A
O1164     Ni1169   1.898       .  S
O1164      C1174   1.278       .  A
O1165     Ni1170   1.897       .  S
O1165      C1174   1.278       .  A
O1166     Ni1170   1.930       .  S
O1166      C1173   1.288       .  A
O1167     Ni1170   1.940       .  S
O1167      C1172   1.285       .  A
O1168     Ni1170   1.891       .  S
O1168      C1171   1.277       .  A
Ni1169    Ni1170   2.392       .  S
C1171      C1551   1.442       .  S
C1174      C1521   1.454       .  S
O1175     Ni1183   1.889       .  S
O1175      C1185   1.276       .  A
O1176     Ni1183   1.931       .  S
O1176      C1186   1.283       .  A
O1177     Ni1183   1.935       .  S
O1177      C1187   1.289       .  A
O1178     Ni1183   1.898       .  S
O1178      C1188   1.278       .  A
O1179     Ni1184   1.902       .  S
O1179      C1188   1.278       .  A
O1180     Ni1184   1.946       .  S
O1180      C1187   1.287       .  A
O1181     Ni1184   1.943       .  S
O1181      C1186   1.287       .  A
O1182     Ni1184   1.886       .  S
O1182      C1185   1.276       .  A
Ni1183    Ni1184   2.392       .  S
C1185      C1501   1.434       .  S
C1187      C1245   1.519       .  S
C1188      C1561   1.448       .  S
O1189     Ni1197   1.899       .  S
O1189      C1199   1.281       .  A
O1190     Ni1197   1.928       .  S
O1190      C1200   1.284       .  A
O1191     Ni1197   1.912       .  S
O1191      C1201   1.282       .  A
O1192     Ni1197   1.869       .  S
O1192      C1202   1.272       .  A
O1193     Ni1198   1.928       .  S
O1193      C1202   1.284       .  A
O1194     Ni1198   1.960       .  S
O1194      C1201   1.290       .  A
O1195     Ni1198   1.916       .  S
O1195      C1200   1.284       .  A
O1196     Ni1198   1.872       .  S
O1196      C1199   1.270       .  A
Ni1197    Ni1198   2.395       .  S
C1199      C1611   1.431       .  S
C1202      C1541   1.445       .  S
O1203     Ni1211   1.880       .  S
O1203      C1213   1.273       .  A
O1204     Ni1211   1.945       .  S
O1204      C1214   1.286       .  A
O1205     Ni1211   1.956       .  S
O1205      C1215   1.293       .  A
O1206     Ni1211   1.908       .  S
O1206      C1216   1.282       .  A
O1207     Ni1212   1.885       .  S
O1207      C1216   1.273       .  A
O1208     Ni1212   1.945       .  S
O1208      C1215   1.287       .  A
O1209     Ni1212   1.957       .  S
O1209      C1214   1.293       .  A
O1210     Ni1212   1.913       .  S
O1210      C1213   1.283       .  A
Ni1211    Ni1212   2.390       .  S
C1213      C1571   1.451       .  S
C1216      C1531   1.447       .  S
O1217     Ni1225   1.893       .  S
O1217      C1227   1.279       .  A
O1218     Ni1225   1.928       .  S
O1218      C1228   1.287       .  A
O1219     Ni1225   1.937       .  S
O1219      C1229   1.282       .  A
O1220     Ni1225   1.889       .  S
O1220      C1230   1.276       .  A
O1221     Ni1226   1.894       .  S
O1221      C1230   1.277       .  A
O1222     Ni1226   1.945       .  S
O1222      C1229   1.288       .  A
O1223     Ni1226   1.934       .  S
O1223      C1228   1.283       .  A
O1224     Ni1226   1.895       .  S
O1224      C1227   1.273       .  A
Ni1225    Ni1226   2.392       .  S
C1227      C1591   1.437       .  S
C1230      C1511   1.437       .  S
O1231     Ni1237   1.884       .  S
O1231      C1252   1.260       .  A
O1232     Ni1255   1.973       .  S
O1232      C1241   1.280       .  A
O1233     Ni1237   1.925   1_655  S
O1233     Ni1255   1.936       .  S
O1233     Ni1249   1.928   1_655  S
O1233      H1256   0.966       .  S
C1234      O1251   1.286       .  A
C1234      O1243   1.275       .  A
C1234      C1347   1.505       .  S
O1235     Ni1254   1.908       .  S
O1235      C1241   1.270       .  A
O1236     Ni1254   1.963       .  S
O1236      C1238   1.279       .  A
Ni1237     O1240   1.919   1_455  S
Ni1237     O1242   1.952       .  S
C1238      O1248   1.277       .  A
O1239     Ni1255   1.983       .  S
O1239      C1245   1.297       .  A
O1240      C1245   1.273       .  A
O1242      C1244   1.274       .  A
O1243     Ni1254   1.921   1_455  S
C1244      O1250   1.270       .  A
H1246      O1247   0.966       .  S
O1247     Ni1255   1.927   1_455  S
O1247     Ni1249   1.933       .  S
O1247     Ni1254   1.917   1_455  S
O1248     Ni1249   1.973   1_655  S
Ni1249     O1253   1.967       .  S
Ni1249     O1251   1.959       .  S
O1250     Ni1255   1.961   1_455  S
C1252      O1253   1.275       .  A
C1257      C1491   1.456       .  S
C1257      C1258   1.390   1_554  A
C1257      C1262   1.389       .  A
C1258      C1259   1.389   1_655  A
C1258      H1263   1.085       .  S
C1259      C1481   1.457       .  S
C1259      C1260   1.394       .  A
C1260      C1261   1.407   1_556  A
C1260      H1264   1.082       .  S
C1261      C1468   1.472       .  S
C1261      C1262   1.400   1_455  A
C1262      H1265   1.082       .  S
O1266     Ni1274   1.889       .  S
O1266      C1276   1.278       .  A
O1267     Ni1274   1.967       .  S
O1267      C1277   1.294       .  A
O1268     Ni1274   1.972       .  S
O1268      C1278   1.295       .  A
O1269     Ni1274   1.889       .  S
O1269      C1279   1.277       .  A
O1270     Ni1275   1.903       .  S
O1270      C1279   1.278       .  A
O1271     Ni1275   1.970       .  S
O1271      C1278   1.296       .  A
O1272     Ni1275   1.973       .  S
O1272      C1277   1.294       .  A
O1273     Ni1275   1.892       .  S
O1273      C1276   1.276       .  A
Ni1274    Ni1275   2.388       .  S
C1276      C1471   1.446       .  S
C1279      C1461   1.447       .  S
C1280      C1451   1.458       .  S
C1280      C1281   1.398   1_455  A
C1280      C1285   1.398       .  A
C1281      C1282   1.388   1_565  A
C1281      H1286   1.085       .  S
C1282      C1438   1.455       .  S
C1282      C1283   1.385       .  A
C1283      C1284   1.397   1_645  A
C1283      H1287   1.085       .  S
C1284      C1428   1.461   1_565  S
C1284      C1285   1.397       .  A
C1285      H1288   1.084       .  S
C1289      C1458   1.456       .  S
C1289      C1290   1.396       .  A
C1289      C1294   1.399       .  A
C1290      C1291   1.396       .  A
C1290      H1295   1.083       .  S
C1291      C1421   1.457       .  S
C1291      C1292   1.391       .  A
C1292      C1293   1.390       .  A
C1292      H1296   1.085       .  S
C1293      C1408   1.452       .  S
C1293      C1294   1.390       .  A
C1294      H1297   1.084       .  S
O1298     Ni1306   1.878       .  S
O1298      C1308   1.273       .  A
O1299     Ni1306   1.946       .  S
O1299      C1309   1.288       .  A
O1300     Ni1306   1.961       .  S
O1300      C1310   1.294       .  A
O1301     Ni1306   1.899       .  S
O1301      C1311   1.280       .  A
O1302     Ni1307   1.885       .  S
O1302      C1311   1.273       .  A
O1303     Ni1307   1.934       .  S
O1303      C1310   1.283       .  A
O1304     Ni1307   1.945       .  S
O1304      C1309   1.291       .  A
O1305     Ni1307   1.911       .  S
O1305      C1308   1.283       .  A
Ni1306    Ni1307   2.391       .  S
C1308      C1431   1.453       .  S
C1311      C1411   1.439       .  S
C1312      C1398   1.445   1_554  S
C1312      C1313   1.389       .  A
C1312      C1317   1.394   1_545  A
C1313      C1314   1.396       .  A
C1313      H1318   1.084       .  S
C1314      C1381   1.456       .  S
C1314      C1315   1.392   1_545  A
C1315      C1316   1.395       .  A
C1315      H1319   1.085       .  S
C1316      C1391   1.452       .  S
C1316      C1317   1.390       .  A
C1317      H1320   1.085   1_554  S
O1321     Ni1329   1.886       .  S
O1321      C1331   1.276       .  A
O1322     Ni1329   1.934       .  S
O1322      C1332   1.288       .  A
O1323     Ni1329   1.935       .  S
O1323      C1333   1.284       .  A
O1324     Ni1329   1.900       .  S
O1324      C1334   1.278       .  A
O1325     Ni1330   1.888       .  S
O1325      C1334   1.277       .  A
O1326     Ni1330   1.934       .  S
O1326      C1333   1.290       .  A
O1327     Ni1330   1.959       .  S
O1327      C1332   1.286       .  A
O1328     Ni1330   1.899       .  S
O1328      C1331   1.278       .  A
Ni1329    Ni1330   2.391       .  S
C1331      C1418   1.434       .  S
C1334      C1378   1.444       .  S
O1335     Ni1343   1.880       .  S
O1335      C1345   1.273       .  A
O1336     Ni1343   1.924       .  S
O1336      C1346   1.288       .  A
O1337     Ni1343   1.949       .  S
O1337      C1347   1.287       .  A
O1338     Ni1343   1.911       .  S
O1338      C1348   1.280       .  A
O1339     Ni1344   1.873       .  S
O1339      C1348   1.274       .  A
O1340     Ni1344   1.910       .  S
O1340      C1347   1.281       .  A
O1341     Ni1344   1.951       .  S
O1341      C1346   1.285       .  A
O1342     Ni1344   1.917       .  S
O1342      C1345   1.282       .  A
Ni1343    Ni1344   2.388       .  S
C1345      C1478   1.445       .  S
C1348      C1401   1.445       .  S
O1349     Ni1357   1.919       .  S
O1349      C1359   1.284       .  A
O1350     Ni1357   1.983       .  S
O1350      C1360   1.295       .  A
O1351     Ni1357   1.964       .  S
O1351      C1361   1.293       .  A
O1352     Ni1357   1.884       .  S
O1352      C1362   1.273       .  A
O1353     Ni1358   1.912       .  S
O1353      C1362   1.283       .  A
O1354     Ni1358   1.967       .  S
O1354      C1361   1.293       .  A
O1355     Ni1358   1.943       .  S
O1355      C1360   1.281       .  A
O1356     Ni1358   1.874       .  S
O1356      C1359   1.273       .  A
Ni1357    Ni1358   2.379       .  S
C1359      C1448   1.454       .  S
C1362      C1388   1.455       .  S
O1363     Ni1371   1.913       .  S
O1363      C1373   1.284       .  A
O1364     Ni1371   1.885       .  S
O1364      C1374   1.275       .  A
O1365     Ni1371   1.884       .  S
O1365      C1375   1.276       .  A
O1366     Ni1371   1.911       .  S
O1366      C1376   1.281       .  A
O1367     Ni1372   1.954       .  S
O1367      C1376   1.290       .  A
O1368     Ni1372   1.901       .  S
O1368      C1375   1.279       .  A
O1369     Ni1372   1.896       .  S
O1369      C1374   1.278       .  A
O1370     Ni1372   1.949       .  S
O1370      C1373   1.287       .  A
Ni1371    Ni1372   2.394       .  S
C1374      C1488   1.439       .  S
C1375      C1441   1.444       .  S
C1377      C1378   1.395       .  A
C1377      C1382   1.383       .  A
C1377      F1384   1.351       .  S
C1378      C1379   1.402       .  A
C1379      C1380   1.387       .  A
C1379      F1386   1.359       .  S
C1380      C1381   1.403       .  A
C1380      F1385   1.358       .  S
C1381      C1382   1.406       .  A
C1382      F1383   1.358   1_545  S
C1387      C1388   1.408       .  A
C1387      C1392   1.390       .  A
C1387      F1394   1.358       .  S
C1388      C1389   1.398       .  A
C1389      C1390   1.383       .  A
C1389      F1396   1.350       .  S
C1390      C1391   1.401       .  A
C1390      F1395   1.359       .  S
C1391      C1392   1.400       .  A
C1392      F1393   1.358       .  S
C1397      C1398   1.395       .  A
C1397      C1402   1.379       .  A
C1397      F1404   1.359   1_556  S
C1398      C1399   1.404       .  A
C1399      C1400   1.394       .  A
C1399      F1406   1.358       .  S
C1400      C1401   1.401       .  A
C1400      F1405   1.358       .  S
C1401      C1402   1.404       .  A
C1402      F1403   1.359       .  S
C1407      C1408   1.405       .  A
C1407      C1412   1.383       .  A
C1407      F1414   1.358       .  S
C1408      C1409   1.401       .  A
C1409      C1410   1.389       .  A
C1409      F1416   1.358       .  S
C1410      C1411   1.402       .  A
C1410      F1415   1.358       .  S
C1411      C1412   1.397       .  A
C1412      F1413   1.359       .  S
C1417      C1418   1.399       .  A
C1417      C1422   1.390       .  A
C1417      F1424   1.358       .  S
C1418      C1419   1.395       .  A
C1419      C1420   1.378       .  A
C1419      F1426   1.360       .  S
C1420      C1421   1.408       .  A
C1420      F1425   1.358       .  S
C1421      C1422   1.405       .  A
C1422      F1423   1.358       .  S
C1427      C1428   1.404       .  A
C1427      C1432   1.389       .  A
C1427      F1434   1.357       .  S
C1428      C1429   1.400       .  A
C1429      C1430   1.387       .  A
C1429      F1436   1.354   1_455  S
C1430      C1431   1.398       .  A
C1430      F1435   1.357       .  S
C1431      C1432   1.406       .  A
C1432      F1433   1.359       .  S
C1437      C1438   1.402       .  A
C1437      C1442   1.388       .  A
C1437      F1444   1.357       .  S
C1438      C1439   1.404       .  A
C1439      C1440   1.385       .  A
C1439      F1446   1.359       .  S
C1440      C1441   1.400       .  A
C1440      F1445   1.359       .  S
C1441      C1442   1.403       .  A
C1442      F1443   1.358       .  S
C1447      C1448   1.407       .  A
C1447      C1452   1.386       .  A
C1447      F1454   1.359       .  S
C1448      C1449   1.399       .  A
C1449      C1450   1.391       .  A
C1449      F1456   1.357       .  S
C1450      C1451   1.397       .  A
C1450      F1455   1.351   1_455  S
C1451      C1452   1.401       .  A
C1452      F1453   1.358       .  S
C1457      C1458   1.402       .  A
C1457      C1462   1.382       .  A
C1457      F1464   1.359       .  S
C1458      C1459   1.405       .  A
C1459      C1460   1.391       .  A
C1459      F1466   1.358       .  S
C1460      C1461   1.402       .  A
C1460      F1465   1.358       .  S
C1461      C1462   1.401       .  A
C1462      F1463   1.356       .  S
C1467      C1468   1.412       .  A
C1467      C1472   1.377       .  A
C1467      F1474   1.351       .  S
C1468      C1469   1.405       .  A
C1469      C1470   1.388       .  A
C1469      F1476   1.353   1_554  S
C1470      C1471   1.402       .  A
C1470      F1475   1.358       .  S
C1471      C1472   1.395       .  A
C1472      F1473   1.360       .  S
C1477      C1478   1.400       .  A
C1477      C1482   1.388       .  A
C1477      F1484   1.357       .  S
C1478      C1479   1.402       .  A
C1479      C1480   1.390       .  A
C1479      F1486   1.359       .  S
C1480      C1481   1.403       .  A
C1480      F1485   1.358       .  S
C1481      C1482   1.401       .  A
C1482      F1483   1.356   1_455  S
C1487      C1488   1.392       .  A
C1487      C1492   1.387       .  A
C1487      F1494   1.358       .  S
C1488      C1489   1.401       .  A
C1489      C1490   1.382       .  A
C1489      F1496   1.352       .  S
C1490      C1491   1.394       .  A
C1490      F1495   1.354   1_554  S
C1491      C1492   1.410       .  A
C1492      F1493   1.352       .  S
C1497      C1498   1.398       .  A
C1497      C1502   1.384       .  A
C1497      F1504   1.356   1_655  S
C1498      C1499   1.407       .  A
C1499      C1500   1.382       .  A
C1499      F1506   1.354       .  S
C1500      C1501   1.394       .  A
C1500      F1505   1.359       .  S
C1501      C1502   1.401       .  A
C1502      F1503   1.356       .  S
C1507      C1508   1.398       .  A
C1507      C1512   1.386       .  A
C1507      F1514   1.356   1_655  S
C1508      C1509   1.411       .  A
C1509      C1510   1.383       .  A
C1509      F1516   1.353       .  S
C1510      C1511   1.391       .  A
C1510      F1515   1.359       .  S
C1511      C1512   1.403       .  A
C1512      F1513   1.357       .  S
C1517      C1518   1.404       .  A
C1517      C1522   1.387       .  A
C1517      F1524   1.358       .  S
C1518      C1519   1.406       .  A
C1519      C1520   1.390       .  A
C1519      F1526   1.358       .  S
C1520      C1521   1.403       .  A
C1520      F1525   1.359       .  S
C1521      C1522   1.403       .  A
C1522      F1523   1.358       .  S
C1527      C1528   1.399       .  A
C1527      C1532   1.392       .  A
C1527      F1534   1.358       .  S
C1528      C1529   1.405       .  A
C1529      C1530   1.382       .  A
C1529      F1536   1.358       .  S
C1530      C1531   1.398       .  A
C1530      F1535   1.359       .  S
C1531      C1532   1.407       .  A
C1532      F1533   1.357       .  S
C1537      C1538   1.398       .  A
C1537      C1542   1.383       .  A
C1537      F1544   1.359       .  S
C1538      C1539   1.410       .  A
C1539      C1540   1.394       .  A
C1539      F1546   1.358       .  S
C1540      C1541   1.397       .  A
C1540      F1545   1.358       .  S
C1541      C1542   1.404       .  A
C1542      F1543   1.356       .  S
C1547      C1548   1.410       .  A
C1547      C1552   1.385       .  A
C1547      F1554   1.356       .  S
C1548      C1549   1.400       .  A
C1549      C1550   1.382       .  A
C1549      F1556   1.359       .  S
C1550      C1551   1.402       .  A
C1550      F1555   1.354       .  S
C1551      C1552   1.396       .  A
C1552      F1553   1.359       .  S
C1557      C1558   1.407       .  A
C1557      C1562   1.389       .  A
C1557      F1564   1.358       .  S
C1558      C1559   1.409       .  A
C1559      C1560   1.389       .  A
C1559      F1566   1.358       .  S
C1560      C1561   1.399       .  A
C1560      F1565   1.359       .  S
C1561      C1562   1.399       .  A
C1562      F1563   1.356       .  S
C1567      C1568   1.402       .  A
C1567      C1572   1.388       .  A
C1567      F1574   1.358       .  S
C1568      C1569   1.403       .  A
C1569      C1570   1.385       .  A
C1569      F1576   1.355       .  S
C1570      C1571   1.397       .  A
C1570      F1575   1.354       .  S
C1571      C1572   1.406       .  A
C1572      F1573   1.358       .  S
C1577      C1578   1.394       .  A
C1577      C1582   1.392       .  A
C1577      F1584   1.358       .  S
C1578      C1579   1.401       .  A
C1579      C1580   1.380       .  A
C1579      F1586   1.354       .  S
C1580      C1581   1.401       .  A
C1580      F1585   1.359       .  S
C1581      C1582   1.413       .  A
C1582      F1583   1.358       .  S
C1587      C1588   1.395       .  A
C1587      C1592   1.378       .  A
C1587      F1594   1.359       .  S
C1588      C1589   1.403       .  A
C1589      C1590   1.392       .  A
C1589      F1596   1.358       .  S
C1590      C1591   1.399       .  A
C1590      F1595   1.358       .  S
C1591      C1592   1.399       .  A
C1592      F1593   1.354       .  S
C1597      C1598   1.409       .  A
C1597      C1602   1.388       .  A
C1597      F1604   1.358       .  S
C1598      C1599   1.398       .  A
C1599      C1600   1.379       .  A
C1599      F1606   1.359       .  S
C1600      C1601   1.399       .  A
C1600      F1605   1.352       .  S
C1601      C1602   1.396       .  A
C1602      F1603   1.359       .  S
C1607      C1608   1.399       .  A
C1607      C1612   1.388       .  A
C1607      F1614   1.358       .  S
C1608      C1609   1.400       .  A
C1609      C1610   1.380       .  A
C1609      F1616   1.359       .  S
C1610      C1611   1.398       .  A
C1610      F1615   1.359       .  S
C1611      C1612   1.400       .  A
C1612      F1613   1.358       .  S
C1617      C1618   1.391       .  A
C1617      C1622   1.378       .  A
C1617      F1624   1.358       .  S
C1618      C1619   1.404       .  A
C1619      C1620   1.380       .  A
C1619      F1626   1.358       .  S
C1620      C1621   1.392       .  A
C1620      F1625   1.359       .  S
C1621      C1622   1.401       .  A
C1622      F1623   1.355       .  S
C1627      C1628   1.402       .  A
C1627      C1632   1.379       .  A
C1627      F1634   1.358   1_455  S
C1628      C1629   1.406       .  A
C1629      C1630   1.386       .  A
C1629      F1636   1.358       .  S
C1630      C1631   1.399       .  A
C1630      F1635   1.359       .  S
C1631      C1632   1.395       .  A
C1632      F1633   1.355       .  S
C1637      C1638   1.393       .  A
C1637      C1642   1.378       .  A
C1637      F1644   1.358       .  S
C1638      C1639   1.412       .  A
C1639      C1640   1.380       .  A
C1639      F1646   1.357       .  S
C1640      C1641   1.388       .  A
C1640      F1645   1.359       .  S
C1641      C1642   1.402       .  A
C1642      F1643   1.353       .  S
C1647      C1648   1.412       .  A
C1647      C1652   1.389       .  A
C1647      F1654   1.358       .  S
C1648      C1649   1.402       .  A
C1649      C1650   1.384       .  A
C1649      F1656   1.359       .  S
C1650      C1651   1.401       .  A
C1650      F1655   1.356       .  S
C1651      C1652   1.396       .  A
C1652      F1653   1.358       .  S
C1657      C1658   1.400       .  A
C1657      C1662   1.386       .  A
C1657      F1664   1.359       .  S
C1658      C1659   1.399       .  A
C1659      C1660   1.388       .  A
C1659      F1666   1.358       .  S
C1660      C1661   1.400       .  A
C1660      F1665   1.353       .  S
C1661      C1662   1.406       .  A
C1662      F1663   1.359       .  S
C1667      C1668   1.413       .  A
C1667      C1672   1.384       .  A
C1667      F1674   1.355       .  S
C1668      C1669   1.401       .  A
C1669      C1670   1.384       .  A
C1669      F1676   1.358       .  S
C1670      C1671   1.402       .  A
C1670      F1675   1.356       .  S
C1671      C1672   1.393       .  A
C1672      F1673   1.359       .  S
C1677      C1678   1.407       .  A
C1677      C1682   1.384       .  A
C1677      F1684   1.357       .  S
C1678      C1679   1.389       .  A
C1679      C1680   1.384       .  A
C1679      F1686   1.352       .  S
C1680      C1681   1.403       .  A
C1680      F1685   1.356       .  S
C1681      C1682   1.393       .  A
C1682      F1683   1.359       .  S
C1687      C1688   1.408       .  A
C1687      C1692   1.388       .  A
C1687      F1694   1.358       .  S
C1688      C1689   1.400       .  A
C1689      C1690   1.387       .  A
C1689      F1696   1.357       .  S
C1690      C1691   1.395       .  A
C1690      F1695   1.348       .  S
C1691      C1692   1.400       .  A
C1692      F1693   1.359       .  S
C1697      C1698   1.402       .  A
C1697      C1702   1.387       .  A
C1697      F1704   1.358       .  S
C1698      C1699   1.395       .  A
C1699      C1700   1.387       .  A
C1699      F1706   1.359       .  S
C1700      C1701   1.411       .  A
C1700      F1705   1.358       .  S
C1701      C1702   1.402       .  A
C1702      F1703   1.358       .  S
C1707      C1708   1.400       .  A
C1707      C1712   1.388       .  A
C1707      F1714   1.359       .  S
C1708      C1709   1.400       .  A
C1709      C1710   1.389       .  A
C1709      F1716   1.359       .  S
C1710      C1711   1.406       .  A
C1710      F1715   1.358       .  S
C1711      C1712   1.405       .  A
C1712      F1713   1.358   1_455  S
C1717      C1718   1.402       .  A
C1717      C1722   1.383       .  A
C1717      F1724   1.359       .  S
C1718      C1719   1.410       .  A
C1719      C1720   1.384       .  A
C1719      F1726   1.356       .  S
C1720      C1721   1.399       .  A
C1720      F1725   1.359       .  S
C1721      C1722   1.402       .  A
C1722      F1723   1.356       .  S
C1727      C1728   1.392       .  A
C1727      C1732   1.384       .  A
C1727      F1734   1.354       .  S
C1728      C1729   1.407       .  A
C1729      C1730   1.387       .  A
C1729      F1736   1.357       .  S
C1730      C1731   1.396       .  A
C1730      F1735   1.358       .  S
C1731      C1732   1.400       .  A
C1732      F1733   1.351       .  S
C1737      C1738   1.406       .  A
C1737      C1742   1.388       .  A
C1737      F1744   1.358       .  S
C1738      C1739   1.398       .  A
C1739      C1740   1.390       .  A
C1739      F1746   1.354       .  S
C1740      C1741   1.401       .  A
C1740      F1745   1.356       .  S
C1741      C1742   1.401       .  A
C1742      F1743   1.359       .  S
C1747      C1748   1.409       .  A
C1747      C1752   1.383       .  A
C1747      F1754   1.350       .  S
C1748      C1749   1.400       .  A
C1749      C1750   1.387       .  A
C1749      F1756   1.351       .  S
C1750      C1751   1.400       .  A
C1750      F1755   1.358       .  S
C1751      C1752   1.394       .  A
C1752      F1753   1.359       .  S
C1757      C1758   1.393       .  A
C1757      C1762   1.381       .  A
C1757      F1764   1.359       .  S
C1758      C1759   1.402       .  A
C1759      C1760   1.391       .  A
C1759      F1766   1.356       .  S
C1760      C1761   1.401       .  A
C1760      F1765   1.356       .  S
C1761      C1762   1.407       .  A
C1762      F1763   1.351       .  S
C1767      C1768   1.400       .  A
C1767      C1772   1.387       .  A
C1767      F1774   1.358       .  S
C1768      C1769   1.396       .  A
C1769      C1770   1.383       .  A
C1769      F1776   1.353       .  S
C1770      C1771   1.395       .  A
C1770      F1775   1.353       .  S
C1771      C1772   1.403       .  A
C1772      F1773   1.358       .  S
C1777      C1778   1.406       .  A
C1777      C1782   1.384       .  A
C1777      F1784   1.358       .  S
C1778      C1779   1.408       .  A
C1779      C1780   1.389       .  A
C1779      F1786   1.358       .  S
C1780      C1781   1.396       .  A
C1780      F1785   1.354       .  S
C1781      C1782   1.402       .  A
C1782      F1783   1.359       .  S
C1787      C1788   1.412       .  A
C1787      C1792   1.384       .  A
C1787      F1794   1.359       .  S
C1788      C1789   1.400       .  A
C1789      C1790   1.389       .  A
C1789      F1796   1.358       .  S
C1790      C1791   1.404       .  A
C1790      F1795   1.358       .  S
C1791      C1792   1.392       .  A
C1792      F1793   1.359       .  S
C1797      C1798   1.402       .  A
C1797      C1802   1.384       .  A
C1797      F1804   1.358       .  S
C1798      C1799   1.400       .  A
C1799      C1800   1.386       .  A
C1799      F1806   1.351       .  S
C1800      C1801   1.400       .  A
C1800      F1805   1.357       .  S
C1801      C1802   1.406       .  A
C1802      F1803   1.359       .  S
C1807      C1808   1.403       .  A
C1807      C1812   1.390       .  A
C1807      F1814   1.358       .  S
C1808      C1809   1.402       .  A
C1809      C1810   1.382       .  A
C1809      F1816   1.359       .  S
C1810      C1811   1.403       .  A
C1810      F1815   1.358       .  S
C1811      C1812   1.403       .  A
C1812      F1813   1.357       .  S
C1817      C1818   1.409       .  A
C1817      C1822   1.388       .  A
C1817      F1824   1.358       .  S
C1818      C1819   1.402       .  A
C1819      C1820   1.381       .  A
C1819      F1826   1.359       .  S
C1820      C1821   1.402       .  A
C1820      F1825   1.356       .  S
C1821      C1822   1.396       .  A
C1822      F1823   1.358       .  S
C1827      C1828   1.400       .  A
C1827      C1832   1.387       .  A
C1827      F1834   1.359       .  S
C1828      C1829   1.400       .  A
C1829      C1830   1.388       .  A
C1829      F1836   1.357       .  S
C1830      C1831   1.404       .  A
C1830      F1835   1.358   1_545  S
C1831      C1832   1.406       .  A
C1832      F1833   1.358       .  S
C1837      C1838   1.404       .  A
C1837      C1842   1.390       .  A
C1837      F1844   1.358       .  S
C1838      C1839   1.409       .  A
C1839      C1840   1.384       .  A
C1839      F1846   1.357       .  S
C1840      C1841   1.400       .  A
C1840      F1845   1.359       .  S
C1841      C1842   1.404       .  A
C1842      F1843   1.357       .  S
C1847      C1848   1.400       .  A
C1847      C1852   1.388       .  A
C1847      F1854   1.355       .  S
C1848      C1849   1.404       .  A
C1849      C1850   1.386       .  A
C1849      F1856   1.357       .  S
C1850      C1851   1.400       .  A
C1850      F1855   1.359       .  S
C1851      C1852   1.403       .  A
C1852      F1853   1.358       .  S
C1857      C1858   1.401       .  A
C1857      C1862   1.385       .  A
C1857      F1864   1.358       .  S
C1858      C1859   1.409       .  A
C1859      C1860   1.387       .  A
C1859      F1866   1.358       .  S
C1860      C1861   1.396       .  A
C1860      F1865   1.358       .  S
C1861      C1862   1.402       .  A
C1862      F1863   1.359       .  S
C1867      C1868   1.405       .  A
C1867      C1872   1.390       .  A
C1867      F1874   1.357       .  S
C1868      C1869   1.405       .  A
C1869      C1870   1.390       .  A
C1869      F1876   1.358       .  S
C1870      C1871   1.402       .  A
C1870      F1875   1.358       .  S
C1871      C1872   1.402       .  A
C1872      F1873   1.359       .  S
C1877      C1878   1.404       .  A
C1877      C1882   1.388       .  A
C1877      F1884   1.358   1_554  S
C1878      C1879   1.410       .  A
C1879      C1880   1.388       .  A
C1879      F1886   1.358       .  S
C1880      C1881   1.398       .  A
C1880      F1885   1.359       .  S
C1881      C1882   1.401       .  A
C1882      F1883   1.357       .  S
C1887      C1888   1.401       .  A
C1887      C1892   1.384       .  A
C1887      F1894   1.359       .  S
C1888      C1889   1.401       .  A
C1889      C1890   1.391       .  A
C1889      F1896   1.357       .  S
C1890      C1891   1.402       .  A
C1890      F1895   1.356       .  S
C1891      C1892   1.405       .  A
C1892      F1893   1.359       .  S
C1897      C1898   1.399       .  A
C1897      C1902   1.386       .  A
C1897      F1904   1.359       .  S
C1898      C1899   1.401       .  A
C1899      C1900   1.389       .  A
C1899      F1906   1.357       .  S
C1900      C1901   1.404       .  A
C1900      F1905   1.358       .  S
C1901      C1902   1.409       .  A
C1902      F1903   1.359       .  S
C1907      C1908   1.403       .  A
C1907      C1912   1.392       .  A
C1907      F1914   1.357       .  S
C1908      C1909   1.402       .  A
C1909      C1910   1.383       .  A
C1909      F1916   1.359       .  S
C1910      C1911   1.405       .  A
C1910      F1915   1.356       .  S
C1911      C1912   1.406       .  A
C1912      F1913   1.358       .  S
C1917      C1918   1.402       .  A
C1917      C1922   1.388       .  A
C1917      F1924   1.359       .  S
C1918      C1919   1.398       .  A
C1919      C1920   1.388       .  A
C1919      F1926   1.358       .  S
C1920      C1921   1.407       .  A
C1920      F1925   1.358       .  S
C1921      C1922   1.404       .  A
C1922      F1923   1.359       .  S
C1927      C1928   1.402       .  A
C1927      C1932   1.390       .  A
C1927      F1934   1.353       .  S
C1928      C1929   1.405       .  A
C1929      C1930   1.386       .  A
C1929      F1936   1.356       .  S
C1930      C1931   1.403       .  A
C1930      F1935   1.359       .  S
C1931      C1932   1.404       .  A
C1932      F1933   1.358       .  S
C1937      C1938   1.400       .  A
C1937      C1942   1.391       .  A
C1937      F1944   1.357       .  S
C1938      C1939   1.405       .  A
C1939      C1940   1.388       .  A
C1939      F1946   1.359       .  S
C1940      C1941   1.406       .  A
C1940      F1945   1.357       .  S
C1941      C1942   1.406       .  A
C1942      F1943   1.356       .  S
C1947      C1948   1.408       .  A
C1947      C1952   1.392       .  A
C1947      F1954   1.358       .  S
C1948      C1949   1.402       .  A
C1949      C1950   1.388       .  A
C1949      F1956   1.357       .  S
C1950      C1951   1.400       .  A
C1950      F1955   1.352       .  S
C1951      C1952   1.400       .  A
C1952      F1953   1.358       .  S
C1957      C1958   1.410       .  A
C1957      C1962   1.385       .  A
C1957      F1964   1.358       .  S
C1958      C1959   1.399       .  A
C1959      C1960   1.385       .  A
C1959      F1966   1.358       .  S
C1960      C1961   1.403       .  A
C1960      F1965   1.357       .  S
C1961      C1962   1.395       .  A
C1962      F1963   1.359       .  S
C1967      C1968   1.407       .  A
C1967      C1972   1.393       .  A
C1967      F1974   1.358       .  S
C1968      C1969   1.392       .  A
C1969      C1970   1.382       .  A
C1969      F1976   1.350       .  S
C1970      C1971   1.400       .  A
C1970      F1975   1.357       .  S
C1971      C1972   1.399       .  A
C1972      F1973   1.358       .  S
C1977      C1978   1.405       .  A
C1977      C1982   1.387       .  A
C1977      F1984   1.357       .  S
C1978      C1979   1.407       .  A
C1979      C1980   1.391       .  A
C1979      F1986   1.357       .  S
C1980      C1981   1.399       .  A
C1980      F1985   1.356       .  S
C1981      C1982   1.405       .  A
C1982      F1983   1.359       .  S
C1987      C1988   1.403       .  A
C1987      C1992   1.387       .  A
C1987      F1994   1.358       .  S
C1988      C1989   1.405       .  A
C1989      C1990   1.386       .  A
C1989      F1996   1.358       .  S
C1990      C1991   1.399       .  A
C1990      F1995   1.359       .  S
C1991      C1992   1.401       .  A
C1992      F1993   1.358       .  S
C1997      C1998   1.405       .  A
C1997      C2002   1.387       .  A
C1997      F2004   1.357       .  S
C1998      C1999   1.403       .  A
C1999      C2000   1.393       .  A
C1999      F2006   1.355       .  S
C2000      C2001   1.405       .  A
C2000      F2005   1.358       .  S
C2001      C2002   1.403       .  A
C2002      F2003   1.359       .  S
C2007      C2008   1.401       .  A
C2007      C2012   1.385       .  A
C2007      F2014   1.359       .  S
C2008      C2009   1.404       .  A
C2009      C2010   1.391       .  A
C2009      F2016   1.358       .  S
C2010      C2011   1.398       .  A
C2010      F2015   1.355       .  S
C2011      C2012   1.402       .  A
C2012      F2013   1.357       .  S
C2017      C2018   1.412       .  A
C2017      C2022   1.387       .  A
C2017      F2024   1.357       .  S
C2018      C2019   1.402       .  A
C2019      C2020   1.391       .  A
C2019      F2026   1.354       .  S
C2020      C2021   1.403       .  A
C2020      F2025   1.358       .  S
C2021      C2022   1.394       .  A
C2022      F2023   1.359       .  S
C2027      C2028   1.406       .  A
C2027      C2032   1.388       .  A
C2027      F2034   1.356       .  S
C2028      C2029   1.407       .  A
C2029      C2030   1.393       .  A
C2029      F2036   1.357       .  S
C2030      C2031   1.406       .  A
C2030      F2035   1.358       .  S
C2031      C2032   1.397       .  A
C2032      F2033   1.355       .  S
C2037      C2038   1.410       .  A
C2037      C2042   1.392       .  A
C2037      F2044   1.356       .  S
C2038      C2039   1.401       .  A
C2039      C2040   1.384       .  A
C2039      F2046   1.359       .  S
C2040      C2041   1.401       .  A
C2040      F2045   1.356       .  S
C2041      C2042   1.397       .  A
C2042      F2043   1.358       .  S
C2047      C2048   1.405       .  A
C2047      C2052   1.388       .  A
C2047      F2054   1.358       .  S
C2048      C2049   1.408       .  A
C2049      C2050   1.391       .  A
C2049      F2056   1.358       .  S
C2050      C2051   1.398       .  A
C2050      F2055   1.356       .  S
C2051      C2052   1.403       .  A
C2052      F2053   1.359       .  S
C2057      C2058   1.397       .  A
C2057      C2062   1.383       .  A
C2057      F2064   1.359       .  S
C2058      C2059   1.402       .  A
C2059      C2060   1.394       .  A
C2059      F2066   1.358       .  S
C2060      C2061   1.403       .  A
C2060      F2065   1.357   1_556  S
C2061      C2062   1.406       .  A
C2062      F2063   1.357       .  S
C2067      C2068   1.409       .  A
C2067      C2072   1.385       .  A
C2067      F2074   1.355       .  S
C2068      C2069   1.402       .  A
C2069      C2070   1.389       .  A
C2069      F2076   1.357       .  S
C2070      C2071   1.406       .  A
C2070      F2075   1.358       .  S
C2071      C2072   1.398       .  A
C2072      F2073   1.359       .  S
C2077      C2078   1.412       .  A
C2077      C2082   1.389       .  A
C2077      F2084   1.358       .  S
C2078      C2079   1.400       .  A
C2079      C2080   1.385       .  A
C2079      F2086   1.358       .  S
C2080      C2081   1.402       .  A
C2080      F2085   1.353       .  S
C2081      C2082   1.396       .  A
C2082      F2083   1.358       .  S
C2087      C2088   1.404       .  A
C2087      C2092   1.379       .  A
C2087      F2094   1.356       .  S
C2088      C2089   1.398       .  A
C2089      C2090   1.391       .  A
C2089      F2096   1.352       .  S
C2090      C2091   1.404       .  A
C2090      F2095   1.357       .  S
C2091      C2092   1.398       .  A
C2092      F2093   1.359       .  S
C2097      C2098   1.412       .  A
C2097      C2102   1.391       .  A
C2097      F2104   1.358       .  S
C2098      C2099   1.405       .  A
C2099      C2100   1.392       .  A
C2099      F2106   1.358       .  S
C2100      C2101   1.404       .  A
C2100      F2105   1.356       .  S
C2101      C2102   1.399       .  A
C2102      F2103   1.359       .  S
C2107      C2108   1.397       .  A
C2107      C2112   1.379       .  A
C2107      F2114   1.358       .  S
C2108      C2109   1.408       .  A
C2109      C2110   1.394       .  A
C2109      F2116   1.358       .  S
C2110      C2111   1.400       .  A
C2110      F2115   1.358       .  S
C2111      C2112   1.401       .  A
C2112      F2113   1.351       .  S
C2117      C2118   1.397       .  A
C2117      C2122   1.379       .  A
C2117      F2124   1.359       .  S
C2118      C2119   1.403       .  A
C2119      C2120   1.393       .  A
C2119      F2126   1.357       .  S
C2120      C2121   1.402       .  A
C2120      F2125   1.357       .  S
C2121      C2122   1.404       .  A
C2122      F2123   1.356       .  S
C2127      C2128   1.402       .  A
C2127      C2132   1.388       .  A
C2127      F2134   1.358       .  S
C2128      C2129   1.406       .  A
C2129      C2130   1.387       .  A
C2129      F2136   1.355       .  S
C2130      C2131   1.401       .  A
C2130      F2135   1.359       .  S
C2131      C2132   1.401       .  A
C2132      F2133   1.353       .  S
C2137      C2138   1.403       .  A
C2137      C2142   1.390       .  A
C2137      F2144   1.357       .  S
C2138      C2139   1.405       .  A
C2139      C2140   1.386       .  A
C2139      F2146   1.359       .  S
C2140      C2141   1.401       .  A
C2140      F2145   1.358       .  S
C2141      C2142   1.395       .  A
C2142      F2143   1.346       .  S
C2147      C2148   1.398       .  A
C2147      C2152   1.380       .  A
C2147      F2154   1.359       .  S
C2148      C2149   1.412       .  A
C2149      C2150   1.385       .  A
C2149      F2156   1.358       .  S
C2150      C2151   1.393       .  A
C2150      F2155   1.359       .  S
C2151      C2152   1.399       .  A
C2152      F2153   1.352       .  S
C2157      C2158   1.391       .  A
C2157      C2162   1.381       .  A
C2157      F2164   1.353   1_565  S
C2158      C2159   1.399       .  A
C2159      C2160   1.383       .  A
C2159      F2166   1.358       .  S
C2160      C2161   1.398       .  A
C2160      F2165   1.359       .  S
C2161      C2162   1.394       .  A
C2162      F2163   1.352       .  S
C2167      C2168   1.404       .  A
C2167      C2172   1.392       .  A
C2167      F2174   1.358       .  S
C2168      C2169   1.399       .  A
C2169      C2170   1.379       .  A
C2169      F2176   1.359       .  S
C2170      C2171   1.400       .  A
C2170      F2175   1.356       .  S
C2171      C2172   1.400       .  A
C2172      F2173   1.358       .  S
C2177      C2178   1.404       .  A
C2177      C2182   1.393       .  A
C2177      F2184   1.357       .  S
C2178      C2179   1.397       .  A
C2179      C2180   1.387       .  A
C2179      F2186   1.358       .  S
C2180      C2181   1.409       .  A
C2180      F2185   1.359       .  S
C2181      C2182   1.403       .  A
C2182      F2183   1.358       .  S
C2187      C2188   1.402       .  A
C2187      C2192   1.388       .  A
C2187      F2194   1.358       .  S
C2188      C2189   1.410       .  A
C2189      C2190   1.382       .  A
C2189      F2196   1.359       .  S
C2190      C2191   1.395       .  A
C2190      F2195   1.359       .  S
C2191      C2192   1.402       .  A
C2192      F2193   1.358       .  S
C2197      C2198   1.404       .  A
C2197      C2202   1.391       .  A
C2197      F2204   1.356       .  S
C2198      C2199   1.405       .  A
C2199      C2200   1.381       .  A
C2199      F2206   1.355       .  S
C2200      C2201   1.400       .  A
C2200      F2205   1.359       .  S
C2201      C2202   1.395       .  A
C2202      F2203   1.356       .  S
C2207      C2208   1.393       .  A
C2207      C2212   1.379       .  A
C2207      F2214   1.344       .  S
C2208      C2209   1.407       .  A
C2209      C2210   1.393       .  A
C2209      F2216   1.354       .  S
C2210      C2211   1.403       .  A
C2210      F2215   1.358       .  S
C2211      C2212   1.397       .  A
C2212      F2213   1.353       .  S
C2217      C2218   1.401       .  A
C2217      C2222   1.388       .  A
C2217      F2224   1.352   1_655  S
C2218      C2219   1.401       .  A
C2219      C2220   1.384       .  A
C2219      F2226   1.358       .  S
C2220      C2221   1.406       .  A
C2220      F2225   1.359       .  S
C2221      C2222   1.400       .  A
C2222      F2223   1.358       .  S
C2227      C2228   1.401       .  A
C2227      C2232   1.381       .  A
C2227      F2234   1.358   1_565  S
C2228      C2229   1.405       .  A
C2229      C2230   1.384       .  A
C2229      F2236   1.358       .  S
C2230      C2231   1.398       .  A
C2230      F2235   1.359       .  S
C2231      C2232   1.400       .  A
C2232      F2233   1.359       .  S
C2237      C2238   1.403       .  A
C2237      C2242   1.386       .  A
C2237      F2244   1.355   1_655  S
C2238      C2239   1.402       .  A
C2239      C2240   1.388       .  A
C2239      F2246   1.358       .  S
C2240      C2241   1.408       .  A
C2240      F2245   1.359       .  S
C2241      C2242   1.400       .  A
C2242      F2243   1.357       .  S
C2247      C2248   1.414       .  A
C2247      C2252   1.391       .  A
C2247      F2254   1.355   1_655  S
C2248      C2249   1.402       .  A
C2249      C2250   1.384       .  A
C2249      F2256   1.359   1_556  S
C2250      C2251   1.406       .  A
C2250      F2255   1.357       .  S
C2251      C2252   1.398       .  A
C2252      F2253   1.358       .  S
C2257      C2258   1.402       .  A
C2257      C2262   1.391       .  A
C2257      F2264   1.358       .  S
C2258      C2259   1.407       .  A
C2259      C2260   1.385       .  A
C2259      F2266   1.359       .  S
C2260      C2261   1.398       .  A
C2260      F2265   1.358       .  S
C2261      C2262   1.402       .  A
C2262      F2263   1.357       .  S
C2267      C2268   1.405       .  A
C2267      C2272   1.381       .  A
C2267      F2274   1.357       .  S
C2268      C2269   1.400       .  A
C2269      C2270   1.388       .  A
C2269      F2276   1.352   1_556  S
C2270      C2271   1.402       .  A
C2270      F2275   1.357       .  S
C2271      C2272   1.399       .  A
C2272      F2273   1.359       .  S
C2277      C2278   1.409       .  A
C2277      C2282   1.384       .  A
C2277      F2284   1.359       .  S
C2278      C2279   1.403       .  A
C2279      C2280   1.390       .  A
C2279      F2286   1.358   1_556  S
C2280      C2281   1.397       .  A
C2280      F2285   1.352       .  S
C2281      C2282   1.395       .  A
C2282      F2283   1.359       .  S
C2287      C2288   1.398       .  A
C2287      C2292   1.382       .  A
C2287      F2294   1.359       .  S
C2288      C2289   1.400       .  A
C2289      C2290   1.388       .  A
C2289      F2296   1.359       .  S
C2290      C2291   1.401       .  A
C2290      F2295   1.354   1_565  S
C2291      C2292   1.404       .  A
C2292      F2293   1.359       .  S
C2297      C2298   1.401       .  A
C2297      C2302   1.380       .  A
C2297      F2304   1.359       .  S
C2298      C2299   1.405       .  A
C2299      C2300   1.395       .  A
C2299      F2306   1.355       .  S
C2300      C2301   1.399       .  A
C2300      F2305   1.356       .  S
C2301      C2302   1.405       .  A
C2302      F2303   1.359       .  S
C2307      C2308   1.401       .  A
C2307      C2312   1.390       .  A
C2307      F2314   1.354       .  S
C2308      C2309   1.409       .  A
C2309      C2310   1.389       .  A
C2309      F2316   1.356       .  S
C2310      C2311   1.398       .  A
C2310      F2315   1.358       .  S
C2311      C2312   1.404       .  A
C2312      F2313   1.359       .  S
C2317      C2318   1.399       .  A
C2317      C2322   1.384       .  A
C2317      F2324   1.359       .  S
C2318      C2319   1.402       .  A
C2319      C2320   1.392       .  A
C2319      F2326   1.358       .  S
C2320      C2321   1.404       .  A
C2320      F2325   1.357       .  S
C2321      C2322   1.406       .  A
C2322      F2323   1.357       .  S
C2327      C2328   1.406       .  A
C2327      C2332   1.389       .  A
C2327      F2334   1.358       .  S
C2328      C2329   1.406       .  A
C2329      C2330   1.391       .  A
C2329      F2336   1.357       .  S
C2330      C2331   1.400       .  A
C2330      F2335   1.358       .  S
C2331      C2332   1.402       .  A
C2332      F2333   1.359       .  S
