geometry optimzed in LAMMPS
_audit_creation_date              2020-11-30 
_audit_creation_method            'lammps2cif' 
_symmetry_space_group_name_H-M    'P1' 
_symmetry_Int_Tables_number       1 
_symmetry_cell_setting            triclinic 
loop_ 
_symmetry_equiv_pos_as_xyz 
  x,y,z 
_cell_length_a                    33.38598148 
_cell_length_b                    33.769559028029306 
_cell_length_c                    38.644217834204255 
_cell_angle_alpha                 90.09516158693287 
_cell_angle_beta                  89.97831708520287 
_cell_angle_gamma                 90.31942698013177 
loop_ 
_atom_site_label 
_atom_site_type_symbol 
_atom_site_fract_x 
_atom_site_fract_y 
_atom_site_fract_z 
_atom_site_charge 
N1          N  0.50179184  0.44168728  0.77571400    -0.36500
N2          N  0.56043723  0.50474323  0.78277001    -0.57100
N3          N  0.49923141  0.56643096  0.78360623    -0.36500
N4          N  0.44056832  0.50197684  0.77767363    -0.57100
C5          C  0.53513662  0.42451949  0.76272018     0.27100
C6          C  0.47005671  0.42230861  0.76180135     0.27100
C7          C  0.53213796  0.58802278  0.77539007     0.27100
C8          C  0.46728221  0.58634158  0.77106652     0.27100
C9          C  0.58510856  0.47322626  0.78384731     0.35700
C10         C  0.58352588  0.53703905  0.78834531     0.35700
C11         C  0.41690632  0.46938979  0.77870420     0.35700
C12         C  0.41595723  0.53353122  0.77924962     0.35700
C13         C  0.52441805  0.39360833  0.74085424    -0.21800
C14         C  0.48342195  0.39218816  0.74029971    -0.21800
C15         C  0.52064877  0.62344652  0.76025849    -0.21800
C16         C  0.47974182  0.62242133  0.75762703    -0.21800
C17         C  0.62375162  0.48531314  0.79175781    -0.22800
C18         C  0.62278174  0.52582477  0.79442813    -0.22800
C19         C  0.37719391  0.48038346  0.78267303    -0.22800
C20         C  0.37658362  0.52102466  0.78273369    -0.22800
C21         C  0.57506038  0.43587953  0.77001282    -0.18200
C22         C  0.42931364  0.43160244  0.76721588    -0.18200
C23         C  0.42746318  0.57205967  0.76937096    -0.18200
C24         C  0.57233673  0.57542842  0.77821349    -0.18200
H25         H  0.54404128  0.37434510  0.72631592     0.14700
H26         H  0.46556969  0.37173313  0.72511150     0.14700
H27         H  0.53983423  0.64686761  0.75055402     0.14700
H28         H  0.46146120  0.64496418  0.74568091     0.14700
H29         H  0.65038370  0.46719468  0.79248632     0.13000
H30         H  0.64855782  0.54511337  0.79743574     0.13000
H31         H  0.35112306  0.46118710  0.78229662     0.13000
H32         H  0.35000681  0.53923797  0.78273885     0.13000
H33         H  0.50069643  0.46375996  0.79456379     0.26300
H34         H  0.49871295  0.53947546  0.79658910     0.26300
N35         N  0.49449073  0.55579334  0.92817320    -0.36500
N36         N  0.55866489  0.49734947  0.92650908    -0.57100
N37         N  0.49449049  0.43824976  0.92563987    -0.36500
N38         N  0.43047824  0.49606436  0.92480518    -0.57100
C39         C  0.52690469  0.57966766  0.92569062     0.27100
C40         C  0.46175629  0.57891234  0.92621021     0.27100
C41         C  0.52739778  0.41577218  0.92131030     0.27100
C42         C  0.46227665  0.41525417  0.91852563     0.27100
C43         C  0.57922766  0.52935510  0.93805335     0.35700
C44         C  0.57890934  0.46530492  0.93789396     0.35700
C45         C  0.40995068  0.52722176  0.93762585     0.35700
C46         C  0.40963273  0.46329140  0.93418374     0.35700
C47         C  0.51461659  0.61840631  0.92056166    -0.21800
C48         C  0.47340773  0.61793280  0.92095723    -0.21800
C49         C  0.51623876  0.37834913  0.91004376    -0.21800
C50         C  0.47499915  0.37796827  0.90842874    -0.21800
C51         C  0.61384603  0.51761067  0.95489101    -0.22800
C52         C  0.61356585  0.47707354  0.95492409    -0.22800
C53         C  0.37497233  0.51431646  0.95346369    -0.22800
C54         C  0.37487302  0.47382601  0.95143448    -0.22800
C55         C  0.56580277  0.56892151  0.93617662    -0.18200
C56         C  0.42315900  0.56705013  0.93694731    -0.18200
C57         C  0.42295995  0.42397073  0.92954319    -0.18200
C58         C  0.56539786  0.42566533  0.93468463    -0.18200
H59         H  0.53337354  0.64464153  0.91965276     0.14700
H60         H  0.45428521  0.64370674  0.92035359     0.14700
H61         H  0.53561283  0.35312065  0.90621142     0.14700
H62         H  0.45634075  0.35231790  0.90327830     0.14700
H63         H  0.63602799  0.53623420  0.96740412     0.13000
H64         H  0.63553982  0.45861720  0.96751225     0.13000
H65         H  0.35260289  0.53208960  0.96639788     0.13000
H66         H  0.35246354  0.45439639  0.96256691     0.13000
H67         H  0.49465007  0.52741203  0.93818198     0.26300
H68         H  0.49379150  0.46406071  0.94020518     0.26300
N69         N  0.49565825  0.11267156  0.40636147    -0.36500
N70         N  0.43514000  0.11839692  0.35295428    -0.57100
N71         N  0.49665922  0.12260341  0.29984527    -0.36500
N72         N  0.55726033  0.11846168  0.35307790    -0.57100
C73         C  0.46290181  0.12185488  0.42536572     0.27100
C74         C  0.52808224  0.12362698  0.42516947     0.27100
C75         C  0.46438934  0.13529957  0.28189801     0.27100
C76         C  0.52956880  0.13423430  0.28201330     0.27100
C77         C  0.41110921  0.11073328  0.38031989     0.35700
C78         C  0.41156139  0.11722158  0.32456201     0.35700
C79         C  0.58062068  0.11187266  0.38088151     0.35700
C80         C  0.58123270  0.11559175  0.32510395     0.35700
C81         C  0.47475228  0.13786308  0.45687490    -0.21800
C82         C  0.51580257  0.13906657  0.45671337    -0.21800
C83         C  0.47699576  0.15429601  0.25196272    -0.21800
C84         C  0.51806423  0.15367433  0.25205908    -0.21800
C85         C  0.37219508  0.10414273  0.36922088    -0.22800
C86         C  0.37256091  0.10782945  0.33381007    -0.22800
C87         C  0.61956835  0.10408467  0.37059939    -0.22800
C88         C  0.61989536  0.10613500  0.33508295    -0.22800
C89         C  0.42253297  0.11624551  0.41515714    -0.18200
C90         C  0.56855417  0.11929426  0.41512211    -0.18200
C91         C  0.56976600  0.12712091  0.29154601    -0.18200
C92         C  0.42377060  0.12947972  0.29126165    -0.18200
H93         H  0.45584183  0.14800472  0.47780729     0.14700
H94         H  0.53443977  0.15018817  0.47752389     0.14700
H95         H  0.45855794  0.16771116  0.23221434     0.14700
H96         H  0.53723597  0.16652351  0.23241760     0.14700
H97         H  0.34602811  0.09887903  0.38513720     0.13000
H98         H  0.34672466  0.10577771  0.31698137     0.13000
H99         H  0.64529800  0.09918276  0.38705414     0.13000
H100        H  0.64596513  0.10319342  0.31863553     0.13000
H101        H  0.49592689  0.09723372  0.38303605     0.26300
H102        H  0.49620340  0.10416976  0.32136925     0.26300
N103        N  0.86321699  0.49842151  0.30037694    -0.36500
N104        N  0.86398590  0.55810656  0.35397257    -0.57100
N105        N  0.86660734  0.49625659  0.40687807    -0.36500
N106        N  0.86348997  0.43699611  0.35314594    -0.57100
C107        C  0.85334941  0.53087236  0.28182153     0.27100
C108        C  0.85129535  0.46650724  0.28174924     0.27100
C109        C  0.85621407  0.52813733  0.42605294     0.27100
C110        C  0.85656397  0.46365449  0.42547668     0.27100
C111        C  0.86689191  0.58239178  0.32636168     0.35700
C112        C  0.86758420  0.58128119  0.38225483     0.35700
C113        C  0.86717158  0.41420075  0.32470709     0.35700
C114        C  0.86972783  0.41305661  0.38047316     0.35700
C115        C  0.83620990  0.51941102  0.25065593    -0.21800
C116        C  0.83466661  0.47887742  0.25071616    -0.21800
C117        C  0.84058509  0.51563609  0.45750484    -0.21800
C118        C  0.84083869  0.47503123  0.45713790    -0.21800
C119        C  0.87267349  0.62118077  0.33708426    -0.22800
C120        C  0.87310468  0.62048510  0.37259535    -0.22800
C121        C  0.87703490  0.37581667  0.33388072    -0.22800
C122        C  0.87861898  0.37508150  0.36938137    -0.22800
C123        C  0.85935061  0.57066115  0.29199302    -0.18200
C124        C  0.85617590  0.42639289  0.29127983    -0.18200
C125        C  0.86134728  0.42382289  0.41486755    -0.18200
C126        C  0.86080660  0.56832230  0.41641920    -0.18200
H127        H  0.82529447  0.53825867  0.23013108     0.14700
H128        H  0.82238639  0.46064516  0.23020869     0.14700
H129        H  0.82962695  0.53386325  0.47849659     0.14700
H130        H  0.83003766  0.45607626  0.47771765     0.14700
H131        H  0.87482081  0.64735462  0.32103633     0.13000
H132        H  0.87568598  0.64605470  0.38939676     0.13000
H133        H  0.88071090  0.35061048  0.31685991     0.13000
H134        H  0.88367422  0.34920318  0.38524491     0.13000
H135        H  0.88004735  0.49801086  0.32299115     0.26300
H136        H  0.88237094  0.49685035  0.38367578     0.26300
N137        N  0.49906428  0.87014012  0.29869604    -0.36500
N138        N  0.43874903  0.86886147  0.35219586    -0.57100
N139        N  0.50101559  0.86743269  0.40591096    -0.36500
N140        N  0.56127483  0.86535187  0.35233041    -0.57100
C141        C  0.46612952  0.86110069  0.27969260     0.27100
C142        C  0.53131096  0.85888373  0.27998394     0.27100
C143        C  0.46827731  0.85865180  0.42508404     0.27100
C144        C  0.53347493  0.85734803  0.42495869     0.27100
C145        C  0.41442380  0.87383226  0.32454186     0.35700
C146        C  0.41535035  0.87159882  0.38063850     0.35700
C147        C  0.58465411  0.87010386  0.32415145     0.35700
C148        C  0.58581206  0.86790959  0.38006201     0.35700
C149        C  0.47771594  0.84449918  0.24841284    -0.21800
C150        C  0.51877956  0.84316923  0.24856822    -0.21800
C151        C  0.48015515  0.84436012  0.45713862    -0.21800
C152        C  0.52118943  0.84357503  0.45704799    -0.21800
C153        C  0.37545964  0.88016710  0.33552435    -0.22800
C154        C  0.37603788  0.87873311  0.37104646    -0.22800
C155        C  0.62415496  0.87618605  0.33400990    -0.22800
C156        C  0.62486775  0.87482234  0.36950345    -0.22800
C157        C  0.42584652  0.86730681  0.28970745    -0.18200
C158        C  0.57187088  0.86346908  0.28985448    -0.18200
C159        C  0.57400075  0.86020752  0.41445075    -0.18200
C160        C  0.42785623  0.86295344  0.41474967    -0.18200
H161        H  0.45861404  0.83405337  0.22765892     0.14700
H162        H  0.53728532  0.83172793  0.22787499     0.14700
H163        H  0.46125424  0.83477931  0.47832525     0.14700
H164        H  0.53979321  0.83325045  0.47807604     0.14700
H165        H  0.34913022  0.88390332  0.31954984     0.13000
H166        H  0.35023689  0.88122163  0.38786740     0.13000
H167        H  0.64996040  0.87974206  0.31731047     0.13000
H168        H  0.65125284  0.87735295  0.38563925     0.13000
H169        H  0.49978918  0.88606365  0.32174284     0.26300
H170        H  0.50109865  0.88183666  0.38220640     0.26300
N171        N  0.12483970  0.50286696  0.40374464    -0.36500
N172        N  0.11851946  0.56161452  0.35041140    -0.57100
N173        N  0.12298498  0.50100965  0.29704316    -0.36500
N174        N  0.12995732  0.44196778  0.35039326    -0.57100
C175        C  0.13543028  0.53638426  0.42086280     0.27100
C176        C  0.14054757  0.47213268  0.42147081     0.27100
C177        C  0.13362935  0.53408502  0.27953320     0.27100
C178        C  0.13700657  0.46977374  0.27880459     0.27100
C179        C  0.11081017  0.58459479  0.37814133     0.35700
C180        C  0.11036718  0.58354805  0.32226195     0.35700
C181        C  0.12718842  0.41878778  0.37882185     0.35700
C182        C  0.12542850  0.41780942  0.32265141     0.35700
C183        C  0.15794347  0.52673708  0.44976054    -0.21800
C184        C  0.16115779  0.48619162  0.45015369    -0.21800
C185        C  0.15451127  0.52368129  0.24983852    -0.21800
C186        C  0.15660829  0.48307765  0.24937351    -0.21800
C187        C  0.09575883  0.62079999  0.36768032    -0.22800
C188        C  0.09555330  0.62016698  0.33204501    -0.22800
C189        C  0.12059981  0.37975753  0.36912812    -0.22800
C190        C  0.11938268  0.37914838  0.33354877    -0.22800
C191        C  0.12415407  0.57533723  0.41168166    -0.18200
C192        C  0.13579559  0.43168021  0.41290895    -0.18200
C193        C  0.13198156  0.42958001  0.28790744    -0.18200
C194        C  0.12335766  0.57327550  0.28882819    -0.18200
H195        H  0.17096108  0.54682506  0.46854403     0.14700
H196        H  0.17711603  0.46903864  0.46928855     0.14700
H197        H  0.16706491  0.54328449  0.23048853     0.14700
H198        H  0.17123833  0.46541361  0.22974089     0.14700
H199        H  0.08835031  0.64586365  0.38391068     0.13000
H200        H  0.08797391  0.64466864  0.31530023     0.13000
H201        H  0.11824616  0.35422662  0.38591757     0.13000
H202        H  0.11589718  0.35304534  0.31751852     0.13000
H203        H  0.10500052  0.50070787  0.38300409     0.26300
H204        H  0.10410573  0.49962670  0.31848882     0.26300
Zr205      Zr  0.23205609  0.23160230  0.15978280     2.17500
O206        O  0.24108315  0.22809363  0.22231483    -0.51200
O207        O  0.17720335  0.18751683  0.17634428    -0.74400
O208        O  0.20159894  0.28676777  0.19048561    -0.81200
O209        O  0.32437005  0.16252643  0.14947676    -0.83000
O210        O  0.17045658  0.32525413  0.15072682    -0.78600
O211        O  0.28657570  0.19618396  0.18815457    -0.90200
O212        O  0.14370474  0.16155677  0.13059752    -0.76200
O213        O  0.17692359  0.23872287  0.12110354    -0.85700
O214        O  0.23441057  0.17633668  0.12185596    -0.85400
O215        O  0.24400694  0.29447866  0.13178084    -0.72100
O216        O  0.29628094  0.23648607  0.13229406    -0.84300
Zr217      Zr  0.25409193  0.25000558  0.02499035     2.26400
Zr218      Zr  0.18844808  0.30080746  0.09282496     2.06300
Zr219      Zr  0.29777971  0.18142975  0.09370062     2.10000
Zr220      Zr  0.18080014  0.18415673  0.08178790     1.78800
O221        O  0.37031455  0.18090656  0.08706544    -0.93100
O222        O  0.11003478  0.19219755  0.06787634    -0.40900
O223        O  0.24382879  0.18761640  0.05327072    -0.77500
O224        O  0.18982162  0.24598371  0.05310288    -0.96200
O225        O  0.25145408  0.30534532  0.06328126    -0.89500
O226        O  0.30945016  0.24235336  0.06331893    -0.92300
C227        C  0.14918971  0.16618216  0.16292543     1.01400
C228        C  0.31560251  0.17282826  0.18044236     1.14400
C229        C  0.18018475  0.31666596  0.18215407     1.05100
O230        O  0.11557432  0.30212038  0.09549890    -0.94500
O231        O  0.16696385  0.32188734  0.03527358    -0.90200
O232        O  0.20697073  0.29260756  0.99497132    -0.83400
C233        C  0.17793277  0.31517847  0.00383830     1.11800
O234        O  0.33174630  0.32216828  0.15675879    -0.96500
Zr235      Zr  0.30641508  0.29740667  0.10166518     1.88900
O236        O  0.30734332  0.29330979  0.00406114    -0.73100
O237        O  0.19359021  0.37266803  0.08976325    -0.52400
O238        O  0.30071301  0.36929917  0.10436044    -0.97000
O239        O  0.37784041  0.28597452  0.10920590    -0.54300
O240        O  0.33705631  0.32359750  0.04974256    -0.73600
C241        C  0.33291754  0.31754628  0.01722534     0.98700
O242        O  0.23851214  0.24368689  0.96349298    -0.62400
O243        O  0.29265470  0.11029397  0.10289719    -0.57200
O244        O  0.28347280  0.19095931  0.99849025    -0.93900
O245        O  0.31021609  0.15035434  0.03906157    -0.92400
O246        O  0.18629117  0.11241174  0.08603324    -0.92700
O247        O  0.16453226  0.15544321  0.02563452    -0.91500
C248        C  0.30185407  0.15927150  0.00781124     1.17600
H249        H  0.23217689  0.15173995  0.13453521     0.33500
H250        H  0.16838088  0.24766566  0.03629405     0.44400
H251        H  0.33453089  0.24136436  0.05078833     0.37900
H252        H  0.24549472  0.31633426  0.14791340     0.34400
H253        H  0.09848933  0.20613693  0.08807399     0.26200
H254        H  0.16738318  0.38232542  0.09818045     0.32100
H255        H  0.28465440  0.37480568  0.12534426     0.38000
H256        H  0.20380076  0.10460057  0.06654321     0.32500
H257        H  0.27569822  0.10032839  0.08373922     0.31300
H258        H  0.37869962  0.15482742  0.09611817     0.33000
H259        H  0.39036576  0.31246506  0.10670599     0.32000
H260        H  0.17800255  0.17295859  0.00865832     0.36000
H261        H  0.26467213  0.24233883  0.95147044     0.28700
H262        H  0.21411660  0.23097102  0.23266990     0.33000
H263        H  0.32722407  0.30013246  0.17320340     0.35800
H264        H  0.31977591  0.10011699  0.09784129     0.28400
H265        H  0.22632705  0.21708755  0.96057079     0.41300
H266        H  0.10673063  0.28300970  0.07757606     0.31300
H267        H  0.10911353  0.21186549  0.04894052     0.39000
H268        H  0.38627173  0.27138362  0.08822433     0.30800
H269        H  0.21271840  0.37997972  0.10828961     0.30900
H270        H  0.25593796  0.25249086  0.22865853     0.31100
Zr271      Zr  0.24847831  0.74440870  0.02529251     2.17500
O272        O  0.22852434  0.76078400  0.96629047    -0.51200
O273        O  0.29579662  0.69570880  0.00225848    -0.74400
O274        O  0.29059174  0.79536799  0.99860967    -0.81200
O275        O  0.14846356  0.68700236  0.03569104    -0.83000
O276        O  0.31913938  0.83460652  0.03975776    -0.78600
O277        O  0.19427765  0.70882400  0.99634995    -0.90200
O278        O  0.32373962  0.66634630  0.04896575    -0.76200
O279        O  0.30378987  0.74583856  0.06433697    -0.85700
O280        O  0.23863869  0.68904517  0.06277405    -0.85400
O281        O  0.24375960  0.80687839  0.05513764    -0.72100
O282        O  0.18502722  0.75382318  0.05321185    -0.84300
Zr283      Zr  0.22757866  0.76334663  0.16082156     2.26400
Zr284      Zr  0.29896453  0.80736839  0.09526007     2.06300
Zr285      Zr  0.17642255  0.69970730  0.09238503     2.10000
Zr286      Zr  0.29346227  0.69087757  0.10178942     1.78800
O287        O  0.10395438  0.70507774  0.09723884    -0.93100
O288        O  0.36522259  0.69585674  0.11253005    -0.40900
O289        O  0.23148222  0.70038841  0.13197683    -0.77500
O290        O  0.29104639  0.75185505  0.13298058    -0.96200
O291        O  0.23597181  0.81832180  0.12311789    -0.89500
O292        O  0.17175431  0.76151298  0.12256817    -0.92300
C293        C  0.32034768  0.67121315  0.01615578     1.01400
C294        C  0.16107634  0.69174893  0.00463954     1.14400
C295        C  0.31181957  0.82539493  0.00815011     1.05100
O296        O  0.37101870  0.79677199  0.09307390    -0.94500
O297        O  0.32221232  0.82531448  0.15337518    -0.90200
O298        O  0.28292365  0.79350389  0.19262139    -0.83400
C299        C  0.31308283  0.81537417  0.18460763     1.11800
O300        O  0.15501796  0.84127158  0.02936874    -0.96500
Zr301      Zr  0.18122251  0.81515669  0.08343027     1.88900
O302        O  0.18282668  0.81658898  0.17891581    -0.73100
O303        O  0.30629434  0.87882677  0.10129756    -0.52400
O304        O  0.19370553  0.88542965  0.07405043    -0.97000
O305        O  0.10897472  0.80636057  0.07843152    -0.54300
O306        O  0.15625244  0.84894429  0.13307237    -0.73600
C307        C  0.16087568  0.84370649  0.16542743     0.98700
O308        O  0.23641889  0.75724759  0.22324575    -0.62400
O309        O  0.17392177  0.62769741  0.08836763    -0.57200
O310        O  0.18836741  0.71000223  0.18680853    -0.93900
O311        O  0.15547421  0.67233050  0.14741284    -0.92400
O312        O  0.28195567  0.61962960  0.10173503    -0.92700
O313        O  0.31175466  0.66047522  0.15666310    -0.91500
C314        C  0.16492421  0.68114962  0.17859009     1.17600
H315        H  0.23809699  0.66457845  0.04982246     0.33500
H316        H  0.31288160  0.75023790  0.14932120     0.44400
H317        H  0.14678588  0.76339221  0.13505129     0.37900
H318        H  0.24494074  0.82895152  0.03938410     0.34400
H319        H  0.37556573  0.66896176  0.10777264     0.26200
H320        H  0.33474386  0.88433324  0.09579501     0.32100
H321        H  0.21790758  0.89143971  0.08790853     0.38000
H322        H  0.30871893  0.60799247  0.09767769     0.32500
H323        H  0.18030027  0.62137549  0.06397032     0.31300
H324        H  0.09436183  0.67743706  0.09982299     0.33000
H325        H  0.09891319  0.80490205  0.10249146     0.32000
H326        H  0.29784023  0.67648453  0.17443669     0.36000
H327        H  0.20930666  0.75847688  0.23357336     0.28700
H328        H  0.25255301  0.75661088  0.95173447     0.33000
H329        H  0.17292116  0.83045420  0.01128859     0.35800
H330        H  0.19755950  0.61865407  0.10157685     0.28400
H331        H  0.24569327  0.72982021  0.22722509     0.41300
H332        H  0.38284433  0.82372357  0.09312284     0.31300
H333        H  0.37569936  0.71220786  0.09327388     0.39000
H334        H  0.10543722  0.77920537  0.06921043     0.30800
H335        H  0.29106589  0.89014449  0.08174807     0.30900
H336        H  0.22402293  0.78975416  0.96616095     0.31100
Zr337      Zr  0.23059217  0.76392189  0.54316940     2.17500
O338        O  0.24444631  0.75721408  0.48141749    -0.51200
O339        O  0.18809701  0.81748855  0.52257012    -0.74400
O340        O  0.18878465  0.71322895  0.51485415    -0.81200
O341        O  0.32422266  0.82948982  0.55493839    -0.83000
O342        O  0.15734541  0.67365310  0.55379682    -0.78600
O343        O  0.28896657  0.79371646  0.51536684    -0.90200
O344        O  0.15618424  0.84471668  0.56855209    -0.76200
O345        O  0.17410913  0.75990017  0.58073766    -0.85700
O346        O  0.23712228  0.81851711  0.58201762    -0.85400
O347        O  0.23651607  0.70061330  0.57124732    -0.72100
O348        O  0.29335581  0.75536299  0.57241835    -0.84300
Zr349      Zr  0.24820474  0.74198155  0.67908292     2.26400
Zr350      Zr  0.18026479  0.69747660  0.60992297     2.06300
Zr351      Zr  0.29896376  0.80944128  0.61202993     2.10000
Zr352      Zr  0.18149899  0.81367870  0.62026808     1.78800
O353        O  0.37124104  0.80126542  0.61588077    -0.93100
O354        O  0.10929639  0.80515585  0.62624636    -0.40900
O355        O  0.24306593  0.80510170  0.65063971    -0.77500
O356        O  0.18496778  0.75174246  0.65015706    -0.96200
O357        O  0.24231650  0.68765324  0.63999889    -0.89500
O358        O  0.30491583  0.74726390  0.64155364    -0.92300
C359        C  0.16371708  0.84235479  0.53610123     1.01400
C360        C  0.31738649  0.81773938  0.52376201     1.14400
C361        C  0.16551902  0.68393056  0.52261985     1.05100
O362        O  0.10750873  0.70139859  0.60794509    -0.94500
O363        O  0.15560234  0.67607384  0.66611062    -0.90200
O364        O  0.19619595  0.70257903  0.70736680    -0.83400
C365        C  0.16596254  0.68171505  0.69776473     1.11800
O366        O  0.32325691  0.66825100  0.54715802    -0.96500
Zr367      Zr  0.29816366  0.69348670  0.60207599     1.88900
O368        O  0.29525610  0.69340151  0.70137684    -0.73100
O369        O  0.18142040  0.62533487  0.60920852    -0.52400
O370        O  0.28692027  0.62256356  0.59540448    -0.97000
O371        O  0.37025391  0.70090072  0.59413147    -0.54300
O372        O  0.32476499  0.66532356  0.65487093    -0.73600
C373        C  0.31989059  0.66903118  0.68768875     0.98700
O374        O  0.24090137  0.75573134  0.74080860    -0.62400
O375        O  0.30632383  0.88130789  0.61157140    -0.57200
O376        O  0.28300060  0.79454220  0.70992878    -0.93900
O377        O  0.31081447  0.83569192  0.66989838    -0.92400
O378        O  0.19295576  0.88463700  0.62604998    -0.92700
O379        O  0.15875873  0.84152222  0.67498362    -0.91500
C380        C  0.30314526  0.82537915  0.70124244     1.17600
H381        H  0.23766402  0.84351818  0.56990886     0.33500
H382        H  0.16303189  0.75150982  0.66632723     0.44400
H383        H  0.32964253  0.74612657  0.65446221     0.37900
H384        H  0.23566835  0.67916882  0.55474566     0.34400
H385        H  0.09849214  0.83240422  0.62600374     0.26200
H386        H  0.19614276  0.61779727  0.63041454     0.32100
H387        H  0.27657202  0.61365039  0.61812195     0.38000
H388        H  0.22245775  0.88759660  0.62680517     0.32500
H389        H  0.33518868  0.88604121  0.60723243     0.31300
H390        H  0.37871028  0.81238330  0.63871492     0.33000
H391        H  0.38166615  0.67561924  0.60238839     0.32000
H392        H  0.18121725  0.83703026  0.69122113     0.36000
H393        H  0.21242706  0.76262914  0.74446998     0.28700
H394        H  0.21842637  0.76060870  0.46952474     0.33000
H395        H  0.31295029  0.68698026  0.52963056     0.35800
H396        H  0.29283096  0.89022572  0.59017260     0.28400
H397        H  0.24463757  0.73007272  0.75274035     0.41300
H398        H  0.10031926  0.71931077  0.62724782     0.31300
H399        H  0.10051164  0.79358021  0.60393252     0.39000
H400        H  0.37874094  0.72063434  0.61163727     0.30800
H401        H  0.15335550  0.61725224  0.61377129     0.30900
H402        H  0.25167166  0.72910757  0.47779998     0.31100
Zr403      Zr  0.25647652  0.25493579  0.67705081     2.17500
O404        O  0.23711570  0.24453110  0.73732353    -0.51200
O405        O  0.30535969  0.30404894  0.69752381    -0.74400
O406        O  0.29352631  0.20200963  0.70579612    -0.81200
O407        O  0.16446424  0.31921547  0.66397442    -0.83000
O408        O  0.31418471  0.15583143  0.66683312    -0.78600
O409        O  0.20447619  0.29325982  0.70575939    -0.90200
O410        O  0.33506516  0.33308686  0.65119673    -0.76200
O411        O  0.31211469  0.24487543  0.63946633    -0.85700
O412        O  0.25554102  0.30961908  0.63805274    -0.85400
O413        O  0.24371189  0.19235134  0.64896813    -0.72100
O414        O  0.19338043  0.25189147  0.64739091    -0.84300
Zr415      Zr  0.23706391  0.23496043  0.54165405     2.26400
Zr416      Zr  0.29929959  0.18316318  0.61006236     2.06300
Zr417      Zr  0.19344285  0.30585768  0.60747137     2.10000
Zr418      Zr  0.31088586  0.29944370  0.60038912     1.78800
O419        O  0.12162579  0.31710962  0.60264432    -0.93100
O420        O  0.38216433  0.28431378  0.60232094    -0.40900
O421        O  0.24896488  0.29784320  0.56894827    -0.77500
O422        O  0.30066875  0.23822481  0.57105463    -0.96200
O423        O  0.23653753  0.17992089  0.58013549    -0.89500
O424        O  0.18089680  0.24434556  0.57866769    -0.92300
C425        C  0.32913744  0.32968528  0.68372196     1.01400
C426        C  0.17384472  0.31302244  0.69576813     1.14400
C427        C  0.30979484  0.16875687  0.69784673     1.05100
O428        O  0.37207309  0.18245309  0.61525819    -0.94500
O429        O  0.32200754  0.16092874  0.55273086    -0.90200
O430        O  0.28922081  0.19803512  0.51282479    -0.83400
C431        C  0.31571501  0.17265668  0.52147455     1.11800
O432        O  0.15335142  0.16522536  0.67222840    -0.96500
Zr433      Zr  0.18168454  0.19056574  0.61852299     1.88900
O434        O  0.18342935  0.19062709  0.52293682    -0.73100
O435        O  0.29373387  0.11128781  0.60689815    -0.52400
O436        O  0.18828032  0.11896601  0.62327410    -0.97000
O437        O  0.11139152  0.20661385  0.62753660    -0.54300
O438        O  0.14870719  0.16491720  0.56810022    -0.73600
C439        C  0.15557337  0.16876384  0.53582458     0.98700
O440        O  0.24643358  0.23223778  0.47913530    -0.62400
O441        O  0.20433212  0.37701856  0.61293165    -0.57200
O442        O  0.21203603  0.29277422  0.51093949    -0.93900
O443        O  0.17783057  0.33002176  0.54964310    -0.92400
O444        O  0.30955557  0.37006277  0.58800595    -0.92700
O445        O  0.34404134  0.31681509  0.54630613    -0.91500
C446        C  0.18959616  0.32214264  0.51869310     1.17600
H447        H  0.25728932  0.33459666  0.65021240     0.33500
H448        H  0.32329201  0.23674292  0.55564443     0.44400
H449        H  0.15614350  0.24548132  0.56573418     0.37900
H450        H  0.24167821  0.17124072  0.66563946     0.34400
H451        H  0.39563081  0.31045081  0.60402086     0.26200
H452        H  0.31960778  0.10136510  0.61580527     0.32100
H453        H  0.16099874  0.10838309  0.61901666     0.38000
H454        H  0.28269237  0.37878621  0.59555514     0.32500
H455        H  0.17983204  0.38900650  0.60315789     0.31300
H456        H  0.11150463  0.29585002  0.58724955     0.33000
H457        H  0.10106589  0.21366827  0.60435583     0.32000
H458        H  0.32453540  0.30944595  0.52806739     0.36000
H459        H  0.21946948  0.23503486  0.46878731     0.28700
H460        H  0.26193930  0.24765792  0.75110413     0.33000
H461        H  0.16236382  0.18428482  0.69014126     0.35800
H462        H  0.20267266  0.38264111  0.63804349     0.28400
H463        H  0.26088392  0.25693990  0.47316112     0.41300
H464        H  0.38235387  0.18137663  0.59125007     0.31300
H465        H  0.38650662  0.27201879  0.62524505     0.39000
H466        H  0.11184737  0.23199322  0.64040560     0.30800
H467        H  0.27392500  0.10411019  0.62493562     0.30900
H468        H  0.22971030  0.21617609  0.73927233     0.31100
Zr469      Zr  0.76724676  0.76479185  0.15956660     2.17500
O470        O  0.76307241  0.76914689  0.22243826    -0.51200
O471        O  0.82282272  0.80789178  0.17688594    -0.74400
O472        O  0.79621261  0.70813732  0.18942822    -0.81200
O473        O  0.67562774  0.83296237  0.15039722    -0.83000
O474        O  0.82655091  0.66804881  0.15031057    -0.78600
O475        O  0.71166054  0.79698253  0.18889381    -0.90200
O476        O  0.85074585  0.83780502  0.13012638    -0.76200
O477        O  0.82097590  0.75495022  0.12013413    -0.85700
O478        O  0.76588559  0.82002299  0.12116903    -0.85400
O479        O  0.75166454  0.70207900  0.13271696    -0.72100
O480        O  0.70270981  0.76293150  0.13206167    -0.84300
Zr481      Zr  0.74118157  0.74335119  0.02475747     2.26400
Zr482      Zr  0.80607129  0.69264111  0.09315014     2.06300
Zr483      Zr  0.70226670  0.81733165  0.09272105     2.10000
Zr484      Zr  0.81805627  0.80902835  0.08035187     1.78800
O485        O  0.63068593  0.83047306  0.09024424    -0.93100
O486        O  0.88944551  0.79757024  0.07218034    -0.40900
O487        O  0.75482559  0.80638888  0.05150378    -0.77500
O488        O  0.80573654  0.74669882  0.05265513    -0.96200
O489        O  0.74232122  0.68943643  0.06445201    -0.89500
O490        O  0.68742443  0.75569038  0.06394717    -0.92300
C491        C  0.84792375  0.83179082  0.16270224     1.01400
C492        C  0.68289351  0.82049091  0.18126557     1.14400
C493        C  0.81698731  0.67758682  0.18152352     1.05100
O494        O  0.87884248  0.68839854  0.09444289    -0.94500
O495        O  0.82578640  0.66978722  0.03585798    -0.90200
O496        O  0.78447670  0.69612880  0.99508835    -0.83400
C497        C  0.81393669  0.67431350  0.00444783     1.11800
O498        O  0.65678105  0.68524477  0.15815978    -0.96500
Zr499      Zr  0.68858022  0.70169849  0.10330951     1.88900
O500        O  0.68716987  0.69935142  0.00514135    -0.73100
O501        O  0.79729805  0.62095682  0.09362135    -0.52400
O502        O  0.69256910  0.63126360  0.11619373    -0.97000
O503        O  0.61730691  0.71662648  0.10633318    -0.54300
O504        O  0.65977216  0.67056521  0.05249127    -0.73600
C505        C  0.66255079  0.67507173  0.01965405     0.98700
O506        O  0.76419883  0.75280668  0.96538639    -0.62400
O507        O  0.71694336  0.88800470  0.09596793    -0.57200
O508        O  0.70618783  0.79763527  0.99586897    -0.93900
O509        O  0.68496896  0.84251255  0.03573463    -0.92400
O510        O  0.80776938  0.87995207  0.07340042    -0.92700
O511        O  0.84425768  0.83196404  0.02494641    -0.91500
C512        C  0.68903888  0.83031170  0.00444893     1.17600
H513        H  0.76936555  0.84466633  0.13352750     0.33500
H514        H  0.82676665  0.74369629  0.03581470     0.44400
H515        H  0.66227823  0.75711829  0.05172311     0.37900
H516        H  0.74963318  0.68056591  0.14899016     0.34400
H517        H  0.90209870  0.82404411  0.07449048     0.26200
H518        H  0.78880837  0.61377569  0.06987004     0.32100
H519        H  0.70940477  0.62015418  0.09749534     0.38000
H520        H  0.78741233  0.88226093  0.05488955     0.32500
H521        H  0.69249756  0.90080648  0.08697695     0.31300
H522        H  0.61829693  0.80512322  0.08293717     0.33000
H523        H  0.60905100  0.72243793  0.08228175     0.32000
H524        H  0.83622622  0.81127093  0.00810773     0.36000
H525        H  0.73987129  0.75118845  0.95078497     0.28700
H526        H  0.79094798  0.76752288  0.23104116     0.33000
H527        H  0.67581195  0.69505094  0.17589735     0.35800
H528        H  0.71682147  0.89439062  0.12097265     0.28400
H529        H  0.77308283  0.78078241  0.96400995     0.41300
H530        H  0.88799889  0.70633765  0.07577602     0.31300
H531        H  0.89791702  0.78315095  0.09320423     0.39000
H532        H  0.61598065  0.74248127  0.11838285     0.30800
H533        H  0.82478989  0.61037050  0.09571101     0.30900
H534        H  0.75029641  0.74410605  0.22988061     0.31100
Zr535      Zr  0.74895939  0.74806104  0.68308765     2.17500
O536        O  0.77607304  0.77046854  0.73845974    -0.51200
O537        O  0.70242440  0.70003434  0.70868057    -0.74400
O538        O  0.70668341  0.79563483  0.71354872    -0.81200
O539        O  0.84486264  0.68655806  0.67123499    -0.83000
O540        O  0.67736070  0.82997197  0.67023490    -0.78600
O541        O  0.79967687  0.70838505  0.71111579    -0.90200
O542        O  0.67387153  0.66855792  0.66309285    -0.76200
O543        O  0.69230800  0.74949547  0.64542074    -0.85700
O544        O  0.75603090  0.69214468  0.64560807    -0.85400
O545        O  0.75373343  0.80972674  0.65207810    -0.72100
O546        O  0.81169957  0.75564040  0.65313678    -0.84300
Zr547      Zr  0.76591192  0.76355454  0.54683464     2.26400
Zr548      Zr  0.69774848  0.80972452  0.61305065     2.06300
Zr549      Zr  0.81758551  0.70046974  0.61426695     2.10000
Zr550      Zr  0.69949955  0.69376250  0.60846098     1.78800
O551        O  0.88988029  0.70715686  0.60814111    -0.93100
O552        O  0.62749883  0.70298264  0.60205306    -0.40900
O553        O  0.76081036  0.70156564  0.57690310    -0.77500
O554        O  0.70256017  0.75375112  0.57537419    -0.96200
O555        O  0.76009925  0.81949930  0.58372809    -0.89500
O556        O  0.82288096  0.76179189  0.58379732    -0.92300
C557        C  0.67841698  0.67404658  0.69578588     1.01400
C558        C  0.83206193  0.69062569  0.70237431     1.14400
C559        C  0.68357200  0.82302463  0.70246114     1.05100
O560        O  0.62616466  0.79640334  0.60907332    -0.94500
O561        O  0.67603302  0.83536672  0.55689029    -0.90200
O562        O  0.71205726  0.79944417  0.51847472    -0.83400
C563        C  0.68419968  0.82413213  0.52592356     1.11800
O564        O  0.83753904  0.84641034  0.67661566    -0.96500
Zr565      Zr  0.81582261  0.81663111  0.62228122     1.88900
O566        O  0.81413598  0.81324797  0.52770556    -0.73100
O567        O  0.68793813  0.88097616  0.61803500    -0.52400
O568        O  0.80739386  0.88810758  0.62503523    -0.97000
O569        O  0.88775560  0.80569343  0.62681700    -0.54300
O570        O  0.84318931  0.84705545  0.57171779    -0.73600
C571        C  0.83807160  0.83990016  0.53966335     0.98700
O572        O  0.76386834  0.75302549  0.48438335    -0.62400
O573        O  0.82037291  0.62898271  0.62220069    -0.57200
O574        O  0.79497312  0.70628638  0.51807586    -0.93900
O575        O  0.83156205  0.67139992  0.55693857    -0.92400
O576        O  0.70725899  0.62208944  0.60849291    -0.92700
O577        O  0.67843393  0.66118438  0.55508873    -0.91500
C578        C  0.81829868  0.67760822  0.52605649     1.17600
H579        H  0.75651525  0.66776471  0.65869826     0.33500
H580        H  0.68051776  0.75307988  0.55924119     0.44400
H581        H  0.84764993  0.76300131  0.57086823     0.37900
H582        H  0.75235850  0.83180238  0.66785978     0.34400
H583        H  0.61674376  0.67639125  0.59632208     0.26200
H584        H  0.70380500  0.89267663  0.59893378     0.32100
H585        H  0.77849343  0.89228114  0.62076523     0.38000
H586        H  0.67984545  0.61146739  0.61201676     0.32500
H587        H  0.84738741  0.62137184  0.61407071     0.31300
H588        H  0.89967870  0.67963166  0.60614424     0.33000
H589        H  0.89256294  0.79856472  0.65129932     0.32000
H590        H  0.68622216  0.67981334  0.53646902     0.36000
H591        H  0.73601425  0.74479418  0.47911614     0.28700
H592        H  0.75534518  0.76426907  0.75600403     0.33000
H593        H  0.83217289  0.82581955  0.69424812     0.35800
H594        H  0.80183364  0.61800651  0.60459426     0.28400
H595        H  0.76684497  0.77958847  0.47384995     0.41300
H596        H  0.61335060  0.82145321  0.61630868     0.31300
H597        H  0.61764169  0.70818782  0.62578947     0.39000
H598        H  0.89996139  0.83231223  0.62416256     0.30800
H599        H  0.65966615  0.88532145  0.61136170     0.30900
H600        H  0.77715695  0.79974833  0.73724311     0.31100
Zr601      Zr  0.75989286  0.23441308  0.15956475     2.17500
O602        O  0.75575290  0.24918769  0.22133614    -0.51200
O603        O  0.80900795  0.18548836  0.17841296    -0.74400
O604        O  0.70732589  0.19661410  0.18915672    -0.81200
O605        O  0.82358941  0.33006291  0.14858679    -0.83000
O606        O  0.66961944  0.16332892  0.14974669    -0.78600
O607        O  0.79410017  0.28930416  0.18772705    -0.90200
O608        O  0.84404295  0.16002775  0.13337200    -0.76200
O609        O  0.75781824  0.17872322  0.12196422    -0.85700
O610        O  0.81562990  0.24184966  0.12171141    -0.85400
O611        O  0.69620884  0.24031536  0.13077228    -0.72100
O612        O  0.75003236  0.29670954  0.13081602    -0.84300
Zr613      Zr  0.74190942  0.25241986  0.02359523     2.26400
Zr614      Zr  0.69483339  0.18419476  0.09266220     2.06300
Zr615      Zr  0.80573401  0.30327469  0.09231577     2.10000
Zr616      Zr  0.81267695  0.18702534  0.08295711     1.78800
O617        O  0.79699296  0.37406754  0.08287451    -0.93100
O618        O  0.80191509  0.11601932  0.07635879    -0.40900
O619        O  0.80484303  0.24819697  0.05323249    -0.77500
O620        O  0.75030012  0.19002455  0.05296548    -0.96200
O621        O  0.68589920  0.24508500  0.06163459    -0.89500
O622        O  0.74391327  0.30855168  0.06117376    -0.92300
C623        C  0.83623610  0.16296215  0.16556805     1.01400
C624        C  0.81515473  0.31989290  0.17968055     1.14400
C625        C  0.67835612  0.17303600  0.18113759     1.05100
O626        O  0.70055115  0.11237231  0.09513639    -0.94500
O627        O  0.67483668  0.16119278  0.03548316    -0.90200
O628        O  0.69965498  0.20349500  0.99478945    -0.83400
C629        C  0.67932967  0.17295638  0.00407058     1.11800
O630        O  0.65812797  0.32808105  0.15142724    -0.96500
Zr631      Zr  0.68840599  0.30072140  0.09916616     1.88900
O632        O  0.69732926  0.30226024  0.99992731    -0.73100
O633        O  0.62189356  0.18256130  0.09099165    -0.52400
O634        O  0.61683276  0.28737565  0.10491143    -0.97000
O635        O  0.69734696  0.37226513  0.10353018    -0.54300
O636        O  0.65983590  0.32359525  0.04506853    -0.73600
C637        C  0.66831579  0.32221264  0.01264423     0.98700
O638        O  0.74952040  0.23396296  0.96290438    -0.62400
O639        O  0.87681443  0.31304464  0.10343490    -0.57200
O640        O  0.80020985  0.28407906  0.99587134    -0.93900
O641        O  0.83845540  0.31359097  0.03714710    -0.92400
O642        O  0.88478148  0.19640079  0.07786136    -0.92700
O643        O  0.84151966  0.16512937  0.02837537    -0.91500
C644        C  0.83124483  0.30405362  0.00562488     1.17600
H645        H  0.84057819  0.24242597  0.13443704     0.33500
H646        H  0.75031352  0.16846411  0.03657538     0.44400
H647        H  0.74291898  0.33301355  0.04833357     0.37900
H648        H  0.67414410  0.23962211  0.14683265     0.34400
H649        H  0.82905937  0.10444653  0.07764096     0.26200
H650        H  0.61458173  0.19798986  0.07018498     0.32100
H651        H  0.60906696  0.27418809  0.08300478     0.38000
H652        H  0.88912013  0.22506768  0.08170842     0.32500
H653        H  0.89073675  0.29596634  0.08651697     0.31300
H654        H  0.81034366  0.38708928  0.10276796     0.33000
H655        H  0.70248815  0.38145009  0.07961815     0.32000
H656        H  0.82693153  0.18027251  0.01049440     0.36000
H657        H  0.74951475  0.25916792  0.94983464     0.28700
H658        H  0.75935006  0.22357546  0.23334967     0.33000
H659        H  0.63884798  0.34828671  0.14342297     0.35800
H660        H  0.88239264  0.34048549  0.09578803     0.28400
H661        H  0.77706917  0.22357633  0.96060753     0.41300
H662        H  0.67367142  0.10292474  0.10230609     0.31300
H663        H  0.78877588  0.10764422  0.09814357     0.39000
H664        H  0.72325052  0.37581581  0.11563051     0.30800
H665        H  0.61496159  0.15483289  0.08501241     0.30900
H666        H  0.72760712  0.25676871  0.22580261     0.31100
Zr667      Zr  0.74065579  0.25147440  0.68042967     2.17500
O668        O  0.75691408  0.22858177  0.73862680    -0.51200
O669        O  0.69649783  0.30247692  0.70454979    -0.74400
O670        O  0.79357446  0.29031970  0.70754442    -0.81200
O671        O  0.67613041  0.15947029  0.67048615    -0.83000
O672        O  0.83494145  0.31656894  0.66670197    -0.78600
O673        O  0.69988087  0.20295032  0.71073431    -0.90200
O674        O  0.67211367  0.33689584  0.65896366    -0.76200
O675        O  0.74434009  0.30712429  0.64284789    -0.85700
O676        O  0.68369941  0.24557483  0.64356646    -0.85400
O677        O  0.80326710  0.24418462  0.64989145    -0.72100
O678        O  0.74684876  0.18897866  0.65095765    -0.84300
Zr679      Zr  0.75622825  0.23409750  0.54461929     2.26400
Zr680      Zr  0.80569055  0.30005869  0.61119746     2.06300
Zr681      Zr  0.69071774  0.18420557  0.61255280     2.10000
Zr682      Zr  0.68768275  0.30101300  0.60602090     1.78800
O683        O  0.69407008  0.11225537  0.60888458    -0.93100
O684        O  0.69484884  0.37048290  0.59040483    -0.40900
O685        O  0.69361044  0.24006018  0.57464741    -0.77500
O686        O  0.74871147  0.29673020  0.57344486    -0.96200
O687        O  0.81316849  0.23827355  0.58139777    -0.89500
O688        O  0.75233052  0.17781342  0.58154721    -0.92300
C689        C  0.67662852  0.33144526  0.69159541     1.01400
C690        C  0.68095908  0.17137496  0.70189200     1.14400
C691        C  0.82479191  0.30993545  0.69812929     1.05100
O692        O  0.79325555  0.37086364  0.61601290    -0.94500
O693        O  0.82954133  0.32299709  0.55498093    -0.90200
O694        O  0.79597369  0.28520202  0.51600447    -0.83400
C695        C  0.82010932  0.31358880  0.52384867     1.11800
O696        O  0.83703517  0.15538345  0.67193554    -0.96500
Zr697      Zr  0.80811766  0.18307635  0.61946923     1.88900
O698        O  0.80390542  0.18688906  0.52192290    -0.73100
O699        O  0.87760690  0.31052384  0.60535544    -0.52400
O700        O  0.88032807  0.19219139  0.62437643    -0.97000
O701        O  0.79639679  0.11208563  0.62522970    -0.54300
O702        O  0.83529231  0.15705075  0.56660381    -0.73600
C703        C  0.82911993  0.16225280  0.53425741     0.98700
O704        O  0.73976964  0.24280771  0.48372966    -0.62400
O705        O  0.61789264  0.18307243  0.61675125    -0.57200
O706        O  0.70176316  0.19965632  0.51545405    -0.93900
O707        O  0.66533140  0.16516620  0.55505894    -0.92400
O708        O  0.61581747  0.28983056  0.61220569    -0.92700
O709        O  0.65097786  0.31992522  0.55422836    -0.91500
C710        C  0.67327438  0.17582067  0.52373764     1.17600
H711        H  0.65931898  0.24603945  0.65709052     0.33500
H712        H  0.74889662  0.31842181  0.55722273     0.44400
H713        H  0.75258292  0.15344337  0.56843057     0.37900
H714        H  0.82569324  0.24388005  0.66554173     0.34400
H715        H  0.66835617  0.38219690  0.59535759     0.26200
H716        H  0.88250059  0.33770785  0.61410675     0.32100
H717        H  0.88451331  0.22117005  0.62296895     0.38000
H718        H  0.60680637  0.30940250  0.62960272     0.32500
H719        H  0.61105180  0.15514966  0.62197930     0.31300
H720        H  0.66664710  0.10296206  0.61446834     0.33000
H721        H  0.79003019  0.10260785  0.60159813     0.32000
H722        H  0.67026102  0.31600956  0.53505965     0.36000
H723        H  0.73251285  0.27103543  0.48113310     0.28700
H724        H  0.75337199  0.25181500  0.75398104     0.33000
H725        H  0.82717939  0.17261853  0.69082428     0.35800
H726        H  0.61149339  0.19754949  0.63832975     0.28400
H727        H  0.76515051  0.23965487  0.47078085     0.41300
H728        H  0.80369606  0.38241385  0.59425695     0.31300
H729        H  0.71280434  0.38182442  0.60826995     0.39000
H730        H  0.77078028  0.10987107  0.63801075     0.30800
H731        H  0.88998780  0.29291945  0.62270893     0.30900
H732        H  0.78608790  0.22343299  0.73852932     0.31100
O733        O  0.90837711  0.06949573  0.29423155    -0.75200
O734        O  0.94831117  0.04119448  0.25320962    -0.54100
C735        C  0.91872224  0.06315741  0.26275177     0.78500
O736        O  0.07472588  0.08160611  0.40774545    -0.59800
O737        O  0.04024956  0.04734605  0.44914347    -0.52800
C738        C  0.06712518  0.07257688  0.43921512     0.70600
O739        O  0.06149711  0.09316219  0.29511892    -0.74300
O740        O  0.03423932  0.05300493  0.25394907    -0.54900
C741        C  0.05454470  0.08360603  0.26360061     0.76600
O742        O  0.91229913  0.06953435  0.40923387    -0.59500
O743        O  0.94988856  0.04123294  0.45140390    -0.52600
C744        C  0.92166663  0.06415295  0.44112072     0.73200
Zr745      Zr  0.93165893  0.05144977  0.35122435     2.54700
O746        O  0.92644848  0.12332887  0.35095520    -0.80100
O747        O  0.85948969  0.04121597  0.35380202    -0.93500
Zr748      Zr  0.04870342  0.06567974  0.35159270     2.64700
O749        O  0.03690286  0.13624514  0.35915785    -0.98400
O750        O  0.12086328  0.07232890  0.34459294    -0.80500
O751        O  0.99020945  0.06008818  0.31764732    -0.83800
O752        O  0.98995883  0.05981333  0.38530056    -2.18600
O753        O  0.92376023  0.91458063  0.40566654    -0.67200
O754        O  0.95403646  0.95216624  0.44729926    -0.51800
C755        C  0.93052157  0.92397106  0.43723336     0.71500
O756        O  0.08774230  0.93431059  0.29520920    -0.60100
O757        O  0.04915719  0.96387430  0.25401735    -0.52100
C758        C  0.07864878  0.94188031  0.26369401     0.73300
O759        O  0.08142605  0.93235780  0.41069877    -0.71500
O760        O  0.04216710  0.96085029  0.45196156    -0.50200
C761        C  0.07116247  0.93846726  0.44240069     0.74700
O762        O  0.92986656  0.91433212  0.29099245    -0.66900
O763        O  0.95998081  0.95419676  0.25086757    -0.54100
C764        C  0.93748126  0.92499890  0.25977694     0.73100
Zr765      Zr  0.94564924  0.93555632  0.34937997     2.77500
O766        O  0.95983457  0.86484873  0.34967247    -0.97600
O767        O  0.87371244  0.92357759  0.34688829    -0.78400
Zr768      Zr  0.06220784  0.94977529  0.35195225     2.70100
O769        O  0.06447475  0.87776832  0.34960479    -0.79700
O770        O  0.13480941  0.95637907  0.35412634    -0.98800
Zr771      Zr  0.99776613  0.00171636  0.28423752     2.21500
Zr772      Zr  0.99630657  0.00076127  0.41842542     2.11100
O773        O  0.00319082  0.94176859  0.38479637    -2.47500
O774        O  0.00480948  0.94213067  0.31646232    -0.79500
O775        O  0.93720207  0.99299494  0.38423204    -0.71700
O776        O  0.05705861  0.00807466  0.31801487    -2.32600
O777        O  0.93767299  0.99391333  0.31671859    -2.28800
O778        O  0.05615438  0.00785862  0.38552491    -0.73400
H779        H  0.98784348  0.08274826  0.39995927     0.78600
H780        H  0.08042847  0.01132700  0.30353245     0.79700
H781        H  0.00534509  0.91872859  0.39950154     0.81900
H782        H  0.91397339  0.99119420  0.30134506     0.79500
H783        H  0.12538342  0.10089710  0.34030052     0.42500
H784        H  0.14010118  0.97339476  0.37452465     0.41500
H785        H  0.09309901  0.87125748  0.35287393     0.41200
H786        H  0.97909387  0.86099656  0.33048629     0.39100
H787        H  0.87067521  0.89480657  0.35111818     0.42200
H788        H  0.85270191  0.02680068  0.33223219     0.37000
H789        H  0.94424883  0.13201577  0.33188921     0.43100
H790        H  0.06355153  0.14873612  0.35604774     0.39600
H791        H  0.97575003  0.86037600  0.37090218     0.44500
H792        H  0.84808815  0.06795710  0.35065590     0.43200
H793        H  0.02153696  0.14417114  0.33840767     0.43300
H794        H  0.14442493  0.92985487  0.36102339     0.43700
O795        O  0.42706719  0.91062161  0.91280456    -0.75200
O796        O  0.37884452  0.94950629  0.88828671    -0.54100
C797        C  0.39056613  0.92033879  0.90720337     0.78500
O798        O  0.55875413  0.07658425  0.91870899    -0.59800
O799        O  0.60812016  0.04075457  0.89251171    -0.52800
C800        C  0.59565330  0.06870205  0.91253640     0.70600
O801        O  0.42559075  0.07215943  0.92197598    -0.74300
O802        O  0.37734540  0.03949497  0.89092105    -0.54900
C803        C  0.38903229  0.06511863  0.91333592     0.76600
O804        O  0.56043635  0.90768299  0.91017078    -0.59500
O805        O  0.60823801  0.94984172  0.88905525    -0.52600
C806        C  0.59699128  0.91901487  0.90619343     0.73200
Zr807      Zr  0.49370217  0.93371997  0.89880554     2.54700
O808        O  0.49529427  0.93454893  0.96186732    -0.80100
O809        O  0.49389446  0.86167755  0.89659780    -0.93500
Zr810      Zr  0.49289731  0.04885737  0.90881147     2.64700
O811        O  0.49658957  0.02979900  0.96944478    -0.98400
O812        O  0.48973908  0.11724752  0.92865714    -0.80500
O813        O  0.45301576  0.99104070  0.90445193    -0.83800
O814        O  0.53339099  0.99151434  0.90501084    -2.18600
O815        O  0.55622929  0.92273294  0.78207723    -0.67200
O816        O  0.60653287  0.95225877  0.81292324    -0.51800
C817        C  0.59316307  0.92855845  0.78933776     0.71500
O818        O  0.42954277  0.08555299  0.79310241    -0.60100
O819        O  0.38023245  0.04649786  0.81615018    -0.52100
C820        C  0.39275517  0.07627198  0.79801656     0.73300
O821        O  0.56183102  0.08165806  0.79258633    -0.71500
O822        O  0.60964937  0.04117851  0.81532310    -0.50200
C823        C  0.59824472  0.07057241  0.79661532     0.74700
O824        O  0.42393579  0.92159996  0.78417089    -0.66900
O825        O  0.37585541  0.95673787  0.81257011    -0.54100
C826        C  0.38727074  0.92986674  0.79119919     0.73100
Zr827      Zr  0.49091418  0.94594518  0.79711852     2.77500
O828        O  0.48657771  0.96819964  0.73739715    -0.97600
O829        O  0.49220160  0.87790235  0.77623820    -0.78400
Zr830      Zr  0.49473232  0.06078688  0.80765096     2.70100
O831        O  0.49521927  0.06600556  0.74485661    -0.79700
O832        O  0.49645181  0.13216269  0.81664232    -0.98800
Zr833      Zr  0.41468945  0.99748002  0.85231670     2.21500
Zr834      Zr  0.57190115  0.99654603  0.85294646     2.11100
O835        O  0.53276663  0.00249788  0.80141528    -2.47500
O836        O  0.45289291  0.00420958  0.80063625    -0.79500
O837        O  0.53129441  0.93847642  0.84730152    -0.71700
O838        O  0.45480608  0.05591578  0.85781588    -2.32600
O839        O  0.45356423  0.93835612  0.84835095    -2.28800
O840        O  0.53318124  0.05553375  0.85855343    -0.73400
H841        H  0.55055859  0.98972565  0.92498225     0.78600
H842        H  0.43850540  0.07939152  0.85925028     0.79700
H843        H  0.54963429  0.00421162  0.78125770     0.81900
H844        H  0.43687218  0.91499541  0.84686629     0.79500
H845        H  0.49122608  0.13317758  0.90720087     0.42500
H846        H  0.47631161  0.13700542  0.83495744     0.41500
H847        H  0.49418716  0.09482979  0.74030924     0.41200
H848        H  0.51433026  0.97533551  0.73081302     0.39100
H849        H  0.48272270  0.86190006  0.79609462     0.42200
H850        H  0.47057622  0.85443173  0.88205991     0.37000
H851        H  0.52370258  0.93943073  0.96796449     0.43100
H852        H  0.51371864  0.05040584  0.98026206     0.39600
H853        H  0.48042429  0.94390727  0.72399401     0.44500
H854        H  0.48643130  0.85319696  0.92026888     0.43200
H855        H  0.46943860  0.03495553  0.97866207     0.43300
H856        H  0.52241249  0.13747888  0.82814996     0.43700
O857        O  0.08326052  0.43007761  0.91398477    -0.75200
O858        O  0.04668857  0.38093419  0.88802546    -0.54100
C859        C  0.07492767  0.39351421  0.90815505     0.78500
O860        O  0.91368868  0.55466021  0.91976551    -0.59800
O861        O  0.94826433  0.60515846  0.89390087    -0.52800
C862        C  0.92049931  0.59150558  0.91392327     0.70600
O863        O  0.92367443  0.42333460  0.92112579    -0.74300
O864        O  0.95771929  0.37733799  0.88922252    -0.54900
C865        C  0.93229302  0.38763397  0.91247822     0.76600
O866        O  0.08322754  0.56171639  0.91334181    -0.59500
O867        O  0.04144783  0.60842551  0.89078782    -0.52600
C868        C  0.07212394  0.59765769  0.90861777     0.73200
Zr869      Zr  0.05892217  0.49546698  0.90038994     2.54700
O870        O  0.05592358  0.49313530  0.96335067    -0.80100
O871        O  0.13175063  0.49956023  0.90075145    -0.93500
Zr872      Zr  0.94221063  0.49080750  0.90652842     2.64700
O873        O  0.95433421  0.49169753  0.96863124    -0.98400
O874        O  0.87008839  0.48500674  0.91466636    -0.80500
O875        O  0.00185906  0.45360047  0.90323478    -0.83800
O876        O  0.99931089  0.53278004  0.90550237    -2.18600
O877        O  0.07073182  0.56374888  0.78335101    -0.67200
O878        O  0.03640331  0.61054867  0.81405402    -0.51800
C879        C  0.06219052  0.59971833  0.79106285     0.71500
O880        O  0.90952193  0.42903595  0.79139846    -0.60100
O881        O  0.94970891  0.38139530  0.81470046    -0.52100
C882        C  0.91930897  0.39299297  0.79672621     0.73300
O883        O  0.90844129  0.55889517  0.79270659    -0.71500
O884        O  0.94686642  0.60703582  0.81798312    -0.50200
C885        C  0.91763322  0.59518870  0.79873450     0.74700
O886        O  0.07437433  0.43196312  0.78024076    -0.66900
O887        O  0.04107559  0.38212822  0.80828488    -0.54100
C888        C  0.06669479  0.39521860  0.78607026     0.73100
Zr889      Zr  0.05194530  0.49691051  0.79879851     2.77500
O890        O  0.04347208  0.49816504  0.73628784    -0.97600
O891        O  0.12470405  0.50127167  0.79577818    -0.78400
Zr892      Zr  0.93485476  0.49383217  0.80515393     2.70100
O893        O  0.93623646  0.49375746  0.74211142    -0.79700
O894        O  0.86232060  0.48992318  0.80866937    -0.98800
Zr895      Zr  0.99925249  0.41626380  0.85063528     2.21500
Zr896      Zr  0.99463286  0.57210487  0.85416158     2.11100
O897        O  0.99241530  0.53458609  0.80171006    -2.47500
O898        O  0.99421296  0.45596064  0.79980742    -0.79500
O899        O  0.05498679  0.53498751  0.85017379    -0.71700
O900        O  0.93897616  0.45367255  0.85495444    -2.32600
O901        O  0.05790477  0.45726340  0.84883866    -2.28800
O902        O  0.93641658  0.53110826  0.85675601    -0.73400
H903        H  0.00004038  0.54923028  0.92593597     0.78600
H904        H  0.91568625  0.43667478  0.85609745     0.79700
H905        H  0.99056161  0.55166989  0.78181583     0.81900
H906        H  0.08192276  0.44152848  0.84732764     0.79500
H907        H  0.85856928  0.49290552  0.89211567     0.42500
H908        H  0.85437404  0.51233528  0.82366185     0.41500
H909        H  0.93997954  0.52186306  0.73555289     0.41200
H910        H  0.06943345  0.48891844  0.72698493     0.39100
H911        H  0.13308011  0.50829986  0.81960065     0.42200
H912        H  0.14069314  0.47811126  0.88511470     0.37000
H913        H  0.05245163  0.52101037  0.97066767     0.43100
H914        H  0.95148253  0.51980839  0.97546206     0.39600
H915        H  0.02451562  0.47622330  0.73134378     0.44500
H916        H  0.13964430  0.49071370  0.92418378     0.43200
H917        H  0.93057161  0.47835814  0.97871647     0.43300
H918        H  0.85296425  0.49701150  0.78519460     0.43700
C919        C  0.66768623  0.10480795  0.72589790    -0.12200
C920        C  0.66457213  0.14596992  0.72965789     0.04800
C921        C  0.64493231  0.16133688  0.75914580    -0.07400
C922        C  0.62688487  0.13547905  0.78272314    -0.08200
C923        C  0.62787488  0.09445019  0.77770001    -0.02700
C924        C  0.64967185  0.07902389  0.74959107     0.04100
N925        N  0.65011886  0.03768062  0.74226653     0.66600
H926        H  0.68301329  0.09246346  0.70364753     0.15500
H927        H  0.60966260  0.14769066  0.80398436     0.15200
N928        N  0.63966133  0.20285566  0.76421683     0.74300
O929        O  0.62515497  0.02439620  0.72066925    -0.39200
O930        O  0.68208573  0.01878355  0.74728642    -0.39100
O931        O  0.60583887  0.21759813  0.75770395    -0.39800
O932        O  0.66236594  0.22050532  0.78536488    -0.39900
C933        C  0.88565746  0.11677165  0.52289857    -0.12200
C934        C  0.85256482  0.13760456  0.51001246     0.04800
C935        C  0.84225361  0.13300231  0.47480061    -0.07400
C936        C  0.86466714  0.10808275  0.45382990    -0.08200
C937        C  0.89802740  0.08738215  0.46648264    -0.02700
C938        C  0.90817826  0.09173244  0.50179647     0.04100
N939        N  0.94113175  0.07160503  0.51713009     0.66600
H940        H  0.89442862  0.11978801  0.54977859     0.15500
H941        H  0.85544156  0.10524237  0.42705222     0.15200
N942        N  0.80878295  0.15246643  0.45950781     0.74300
O943        O  0.97283982  0.09103659  0.52266270    -0.39200
O944        O  0.93379008  0.04185044  0.53584307    -0.39100
O945        O  0.81541237  0.18123454  0.43945910    -0.39800
O946        O  0.77643043  0.13332495  0.45626750    -0.39900
C947        C  0.83097054  0.34400913  0.75364780    -0.12200
C948        C  0.85013522  0.32625489  0.72566535     0.04800
C949        C  0.89241168  0.32537251  0.72468730    -0.07400
C950        C  0.91444949  0.34353416  0.75105252    -0.08200
C951        C  0.89520609  0.36396420  0.77767102    -0.02700
C952        C  0.85278767  0.36362127  0.77913267     0.04100
N953        N  0.83065922  0.38370108  0.80536732     0.66600
H954        H  0.79850841  0.34470287  0.75477532     0.15500
H955        H  0.94681486  0.34438804  0.74916563     0.15200
N956        N  0.91371563  0.30688250  0.69711023     0.74300
O957        O  0.81916265  0.41847788  0.79917055    -0.39200
O958        O  0.80945213  0.36275706  0.82532508    -0.39100
O959        O  0.93000743  0.32866896  0.67458435    -0.39800
O960        O  0.92752787  0.27264813  0.70199560    -0.39900
C961        C  0.61789591  0.13586477  0.92787235    -0.12200
C962        C  0.62445090  0.09494656  0.93021967     0.04800
C963        C  0.65204077  0.08074239  0.95477072    -0.07400
C964        C  0.67037795  0.10720106  0.97774640    -0.08200
C965        C  0.66191945  0.14775406  0.97678407    -0.02700
C966        C  0.63635646  0.16237388  0.95075210     0.04100
N967        N  0.62589731  0.20325977  0.94881551     0.66600
H968        H  0.59635967  0.14713710  0.90938276     0.15500
H969        H  0.69043571  0.09571922  0.99733684     0.15200
N970        N  0.65922922  0.03946495  0.95909722     0.74300
O971        O  0.64141591  0.22407761  0.92521644    -0.39200
O972        O  0.59299225  0.21408211  0.96173379    -0.39100
O973        O  0.69179911  0.02553670  0.94800447    -0.39800
O974        O  0.64123403  0.02155340  0.98320389    -0.39900
C975        C  0.92500230  0.34693037  0.96393863    -0.12200
C976        C  0.91084640  0.35692791  0.93153666     0.04800
C977        C  0.87238652  0.34504992  0.92146759    -0.07400
C978        C  0.84707786  0.32563302  0.94509080    -0.08200
C979        C  0.86036248  0.31782500  0.97902718    -0.02700
C980        C  0.90077691  0.32705096  0.98752942     0.04100
N981        N  0.91813140  0.31776501  0.02017985     0.66600
H982        H  0.95429621  0.35697649  0.97191208     0.15500
H983        H  0.81657398  0.31872579  0.93751660     0.15200
N984        N  0.85837767  0.35537907  0.88797379     0.74300
O985        O  0.93890575  0.28675313  0.02220079    -0.39200
O986        O  0.92614309  0.34608985  0.04040830    -0.39100
O987        O  0.87355018  0.33774814  0.86234183    -0.39800
O988        O  0.84406796  0.38955721  0.88380989    -0.39900
C989        C  0.91710445  0.10006630  0.20762420    -0.12200
C990        C  0.89613453  0.08485095  0.23606196     0.04800
C991        C  0.85532442  0.09491494  0.24036122    -0.07400
C992        C  0.83711157  0.12082703  0.21728067    -0.08200
C993        C  0.85829885  0.13696118  0.18943901    -0.02700
C994        C  0.89873347  0.12592431  0.18436238     0.04100
N995        N  0.92253812  0.14218034  0.15712375     0.66600
H996        H  0.94856551  0.09328253  0.20419370     0.15500
H997        H  0.80572404  0.12782254  0.22093316     0.15200
N998        N  0.83120857  0.07845196  0.26729748     0.74300
O999        O  0.94631266  0.17021152  0.16424819    -0.39200
O1000       O  0.92984787  0.12076919  0.13111389    -0.39100
O1001       O  0.82150043  0.10050278  0.29228350    -0.39800
O1002       O  0.80904454  0.04918807  0.26009854    -0.39900
C1003       C  0.64903412  0.88067877  0.78321708    -0.12200
C1004       C  0.62088772  0.90570050  0.76788320     0.04800
C1005       C  0.61436905  0.90330839  0.73194482    -0.07400
C1006       C  0.63495219  0.87598615  0.71232437    -0.08200
C1007       C  0.66272228  0.84997511  0.72703169    -0.02700
C1008       C  0.66996180  0.85269777  0.76323236     0.04100
N1009       N  0.69774206  0.82761430  0.78051326     0.66600
H1010       H  0.65352690  0.88162194  0.81099030     0.15500
H1011       H  0.62814010  0.87519132  0.68491657     0.15200
N1012       N  0.58579549  0.92745919  0.71452033     0.74300
O1013       O  0.73124109  0.84202265  0.78912463    -0.39200
O1014       O  0.68419834  0.79845984  0.79731703    -0.39100
O1015       O  0.59877257  0.95515814  0.69569672    -0.39800
O1016       O  0.55224369  0.91227344  0.70719387    -0.39900
C1017       C  0.91562781  0.65242399  0.75964174    -0.12200
C1018       C  0.89450660  0.62483047  0.77958357     0.04800
C1019       C  0.85248248  0.62214827  0.77612154    -0.07400
C1020       C  0.83287881  0.64557157  0.75186500    -0.08200
C1021       C  0.85436199  0.67104834  0.73017002    -0.02700
C1022       C  0.89611826  0.67517698  0.73465672     0.04100
N1023       N  0.91922573  0.70233455  0.71451129     0.66600
H1024       H  0.94778701  0.65464898  0.76215305     0.15500
H1025       H  0.80070733  0.64243226  0.74890774     0.15200
N1026       N  0.82900965  0.59563176  0.79658353     0.74300
O1027       O  0.92761836  0.73570628  0.72742247    -0.39200
O1028       O  0.94125754  0.68885548  0.69076493    -0.39100
O1029       O  0.81063696  0.60948628  0.82240526    -0.39800
O1030       O  0.81563064  0.56455414  0.78247948    -0.39900
C1031       C  0.86869603  0.84487455  0.48214624    -0.12200
C1032       C  0.86223989  0.86239391  0.51446260     0.04800
C1033       C  0.88023283  0.89959820  0.52168721    -0.07400
C1034       C  0.90266419  0.91869530  0.49620218    -0.08200
C1035       C  0.90858668  0.90129578  0.46373078    -0.02700
C1036       C  0.89189591  0.86339320  0.45707213     0.04100
N1037       N  0.89958537  0.84187097  0.42594257     0.66600
H1038       H  0.85654662  0.81576372  0.47635735     0.15500
H1039       H  0.91511552  0.94769660  0.50191683     0.15200
N1040       N  0.87606005  0.91904490  0.55430047     0.74300
O1041       O  0.87198964  0.83922038  0.40374202    -0.39200
O1042       O  0.92592402  0.81522266  0.42668911    -0.39100
O1043       O  0.90588793  0.91977319  0.57435379    -0.39800
O1044       O  0.85011280  0.94588212  0.55712795    -0.39900
C1045       C  0.88002477  0.66578819  0.97802323    -0.12200
C1046       C  0.83913006  0.65630092  0.97741682     0.04800
C1047       C  0.82472071  0.62948923  0.95222921    -0.07400
C1048       C  0.85189938  0.61090056  0.92995175    -0.08200
C1049       C  0.89319654  0.61887172  0.93187679    -0.02700
C1050       C  0.90705111  0.64760364  0.95552750     0.04100
N1051       N  0.94859790  0.65673209  0.95912521     0.66600
H1052       H  0.89135340  0.68685402  0.99689706     0.15500
H1053       H  0.84085030  0.58862614  0.91203600     0.15200
N1054       N  0.78345161  0.61834562  0.95037198     0.74300
O1055       O  0.96173575  0.68806738  0.94535614    -0.39200
O1056       O  0.96728326  0.64241852  0.98453488    -0.39100
O1057       O  0.76274444  0.63135636  0.92560259    -0.39800
O1058       O  0.77242192  0.58677984  0.96508722    -0.39900
C1059       C  0.65410789  0.83493355  0.94789421    -0.12200
C1060       C  0.67119631  0.85457307  0.97636294     0.04800
C1061       C  0.66851773  0.89643181  0.97792852    -0.07400
C1062       C  0.64712750  0.91699075  0.95258087    -0.08200
C1063       C  0.62735938  0.89691950  0.92590707    -0.02700
C1064       C  0.63194999  0.85553433  0.92304142     0.04100
N1065       N  0.61459881  0.83375507  0.89510180     0.66600
H1066       H  0.65628454  0.80301335  0.94568355     0.15500
H1067       H  0.64383734  0.94876059  0.95505130     0.15200
N1068       N  0.68651408  0.91889552  0.00515275     0.74300
O1069       O  0.63656986  0.82511014  0.86963823    -0.39200
O1070       O  0.58395392  0.81278340  0.90095798    -0.39100
O1071       O  0.71837410  0.93776012  0.99867984    -0.39800
O1072       O  0.66438781  0.93093565  0.02941627    -0.39900
C1073       C  0.92061368  0.86082696  0.23363832    -0.12200
C1074       C  0.91804602  0.90198350  0.23248412     0.04800
C1075       C  0.89440564  0.92033357  0.20717347    -0.07400
C1076       C  0.87269582  0.89693062  0.18368047    -0.08200
C1077       C  0.87414588  0.85532438  0.18556090    -0.02700
C1078       C  0.89908005  0.83735737  0.21045958     0.04100
N1079       N  0.90383696  0.79546573  0.21240069     0.66600
H1080       H  0.93920304  0.84673889  0.25299935     0.15500
H1081       H  0.85343005  0.91115323  0.16491750     0.15200
N1082       N  0.89017344  0.96245290  0.20694895     0.74300
O1083       O  0.93483766  0.78054910  0.19911932    -0.39200
O1084       O  0.88678760  0.77721659  0.23682094    -0.39100
O1085       O  0.91572095  0.98308494  0.19089890    -0.39800
O1086       O  0.86924819  0.97864961  0.23015579    -0.39900
C1087       C  0.15132632  0.12865226  0.48306910    -0.12200
C1088       C  0.13162169  0.14460268  0.51173098     0.04800
C1089       C  0.09085623  0.13496980  0.51735274    -0.07400
C1090       C  0.07085737  0.11005315  0.49406902    -0.08200
C1091       C  0.09057913  0.09434766  0.46531956    -0.02700
C1092       C  0.13148434  0.10363257  0.46007670     0.04100
N1093       N  0.15406737  0.08706077  0.43228198     0.66600
H1094       H  0.18284453  0.13488169  0.47878902     0.15500
H1095       H  0.03935775  0.10413984  0.49773840     0.15200
N1096       N  0.06862884  0.15144502  0.54541198     0.74300
O1097       O  0.16092487  0.10833848  0.40611715    -0.39200
O1098       O  0.17782800  0.05917849  0.43900782    -0.39100
O1099       O  0.04542874  0.17997808  0.53933162    -0.39800
O1100       O  0.06219305  0.13023730  0.57170135    -0.39900
C1101       C  0.34866265  0.16386405  0.75154373    -0.12200
C1102       C  0.32544441  0.14463038  0.72657461     0.04800
C1103       C  0.31912423  0.10328027  0.72937233    -0.07400
C1104       C  0.33790862  0.08197478  0.75582501    -0.08200
C1105       C  0.36403345  0.10085809  0.77889132    -0.02700
C1106       C  0.36854010  0.14255718  0.77711073     0.04100
N1107       N  0.39503985  0.16392193  0.79944033     0.66600
H1108       H  0.35353153  0.19559313  0.74994938     0.15500
H1109       H  0.33435488  0.05008272  0.75668964     0.15200
N1110       N  0.29384971  0.08221976  0.70586626     0.74300
O1111       O  0.42956763  0.17219249  0.78826282    -0.39200
O1112       O  0.37986383  0.18658550  0.82177435    -0.39100
O1113       O  0.30992606  0.06013082  0.68351890    -0.39800
O1114       O  0.25822535  0.07508245  0.71492089    -0.39900
C1115       C  0.10510303  0.32606278  0.71658898    -0.12200
C1116       C  0.14651092  0.32912386  0.72228951     0.04800
C1117       C  0.16039689  0.34944925  0.75194391    -0.07400
C1118       C  0.13303711  0.36831748  0.77372176    -0.08200
C1119       C  0.09186915  0.36707328  0.76695248    -0.02700
C1120       C  0.07771727  0.34468576  0.73861277     0.04100
N1121       N  0.03612284  0.34229903  0.73037279     0.66600
H1122       H  0.09391403  0.31004020  0.69422081     0.15500
H1123       H  0.14425490  0.38580444  0.79524231     0.15200
N1124       N  0.20209487  0.35418315  0.75905500     0.74300
O1125       O  0.02253697  0.36499589  0.70733427    -0.39200
O1126       O  0.01778879  0.31030437  0.73654340    -0.39100
O1127       O  0.21892898  0.38635297  0.75077566    -0.39800
O1128       O  0.21735322  0.33360102  0.78281235    -0.39900
C1129       C  0.09818355  0.66864410  0.72084262    -0.12200
C1130       C  0.13968611  0.66482281  0.72479294     0.03700
C1131       C  0.15449254  0.64484377  0.75411015    -0.07400
C1132       C  0.12787141  0.62755602  0.77761496    -0.08200
C1133       C  0.08643904  0.62933906  0.77254455    -0.02700
C1134       C  0.07154490  0.65108518  0.74428838     0.04100
N1135       N  0.02972177  0.65421403  0.73773823     0.66600
H1136       H  0.08623830  0.68460581  0.69885338     0.15500
H1137       H  0.13979759  0.61017832  0.79879789     0.15200
N1138       N  0.19623384  0.63916314  0.75948406     0.74300
O1139       O  0.01299094  0.68673505  0.74446384    -0.39200
O1140       O  0.01432388  0.63186570  0.71510938    -0.39100
O1141       O  0.21254948  0.65787496  0.78400357    -0.39800
O1142       O  0.21166805  0.60707732  0.74947745    -0.39900
C1143       C  0.13470832  0.90776835  0.46020457    -0.12200
C1144       C  0.09519675  0.91769842  0.46887320     0.04800
C1145       C  0.07983704  0.90532986  0.50122575    -0.07400
C1146       C  0.10311162  0.88138777  0.52270208    -0.08200
C1147       C  0.14182078  0.86967466  0.51304972    -0.02700
C1148       C  0.15810301  0.88434791  0.48182901     0.04100
N1149       N  0.19875326  0.87759820  0.47207641     0.66600
H1150       H  0.14780039  0.91821420  0.43618762     0.15500
H1151       H  0.09023477  0.87107868  0.54684160     0.15200
N1152       N  0.04045867  0.91534875  0.51254569     0.74300
O1153       O  0.20582406  0.85197236  0.44910980    -0.39200
O1154       O  0.22378345  0.90528210  0.47657396    -0.39100
O1155       O  0.01338991  0.88916981  0.51106364    -0.39800
O1156       O  0.03668037  0.94333198  0.53396349    -0.39900
C1157       C  0.31233451  0.89240362  0.72581973    -0.12200
C1158       C  0.31827852  0.85152270  0.72892338     0.04800
C1159       C  0.34117428  0.83719850  0.75685287    -0.07400
C1160       C  0.36067736  0.86381547  0.77885157    -0.08200
C1161       C  0.35730820  0.90467709  0.77403379    -0.02700
C1162       C  0.33122838  0.91905372  0.74837475     0.04100
N1163       N  0.32553672  0.96042495  0.74318498     0.66600
H1164       H  0.29399014  0.90381530  0.70499059     0.15500
H1165       H  0.38041430  0.85242891  0.79874722     0.15200
N1166       N  0.34711885  0.79596909  0.76233888     0.74300
O1167       O  0.29406887  0.97604539  0.75490607    -0.39200
O1168       O  0.34358558  0.97705103  0.71842393    -0.39100
O1169       O  0.37983764  0.78086121  0.75284326    -0.39800
O1170       O  0.32774306  0.77972680  0.78651861    -0.39900
C1171       C  0.15776729  0.65295576  0.95092192    -0.12200
C1172       C  0.13717538  0.67396084  0.97651371     0.04800
C1173       C  0.09479284  0.67406138  0.97601992    -0.07400
C1174       C  0.07420908  0.65170399  0.95118077    -0.08200
C1175       C  0.09494592  0.62807649  0.92753483    -0.02700
C1176       C  0.13722204  0.62954013  0.92696262     0.04100
N1177       N  0.16008672  0.60691943  0.90286982     0.66600
H1178       H  0.19024816  0.65270436  0.95075880     0.15500
H1179       H  0.04177322  0.65072968  0.95192662     0.15200
N1180       N  0.07191951  0.69601759  0.00058683     0.74300
O1181       O  0.17299002  0.62401736  0.87604862    -0.39200
O1182       O  0.17836407  0.57680655  0.91377017    -0.39100
O1183       O  0.05635696  0.72813762  0.99097124    -0.39800
O1184       O  0.05638732  0.67769951  0.02571260    -0.39900
C1185       C  0.33742861  0.83448027  0.94859232    -0.12200
C1186       C  0.32768294  0.85145355  0.98061196     0.04800
C1187       C  0.33248316  0.89289732  0.98495079    -0.07400
C1188       C  0.34869492  0.91565266  0.95824788    -0.08200
C1189       C  0.36118733  0.89807759  0.92744836    -0.02700
C1190       C  0.35463005  0.85719999  0.92227012     0.04100
N1191       N  0.36615771  0.83785005  0.89097992     0.66600
H1192       H  0.33331704  0.80296697  0.94439133     0.15500
H1193       H  0.35424186  0.94695124  0.96265084     0.15200
N1194       N  0.32168319  0.91277595  0.01615986     0.74300
O1195       O  0.39840498  0.81856101  0.89065287    -0.39200
O1196       O  0.33914753  0.82875825  0.86950647    -0.39100
O1197       O  0.34933223  0.92342322  0.03645818    -0.39800
O1198       O  0.28902546  0.93139336  0.01684197    -0.39900
C1199       C  0.08439811  0.91312374  0.20516344    -0.12200
C1200       C  0.10263515  0.92175069  0.23689951     0.04800
C1201       C  0.14157582  0.90700160  0.24346459    -0.07400
C1202       C  0.15966777  0.88175239  0.21968161    -0.08200
C1203       C  0.14044493  0.87140565  0.18884995    -0.02700
C1204       C  0.10293969  0.88854945  0.18103392     0.04100
N1205       N  0.08203394  0.88012630  0.14963838     0.66600
H1206       H  0.05467804  0.92411145  0.19946696     0.15500
H1207       H  0.18929593  0.87044701  0.22532322     0.15200
N1208       N  0.16399724  0.91797449  0.27348278     0.74300
O1209       O  0.05497235  0.85390106  0.15003900    -0.39200
O1210       O  0.08070842  0.90668271  0.12673442    -0.39100
O1211       O  0.16934072  0.89234497  0.29673097    -0.39800
O1212       O  0.18878937  0.94616890  0.27093947    -0.39900
C1213       C  0.11206695  0.32284085  0.97630721    -0.12200
C1214       C  0.15303868  0.33177173  0.97597870     0.04800
C1215       C  0.16859645  0.35560078  0.94914183    -0.07400
C1216       C  0.14248094  0.37221005  0.92490853    -0.08200
C1217       C  0.10099392  0.36541299  0.92662114    -0.02700
C1218       C  0.08604317  0.33914726  0.95188437     0.04100
N1219       N  0.04425576  0.33181720  0.95575058     0.66600
H1220       H  0.09989358  0.30386683  0.99638864     0.15500
H1221       H  0.15444400  0.39270455  0.90589831     0.15200
N1222       N  0.21001787  0.36620492  0.94762815     0.74300
O1223       O  0.03037201  0.29902309  0.94545468    -0.39200
O1224       O  0.02603207  0.35008717  0.97941717    -0.39100
O1225       O  0.23161483  0.35031073  0.92474878    -0.39800
O1226       O  0.22080409  0.39913730  0.96010433    -0.39900
C1227       C  0.34365515  0.06909301  0.96229281    -0.12200
C1228       C  0.35871285  0.08679147  0.93248774     0.04800
C1229       C  0.34986061  0.12661504  0.92536449    -0.07400
C1230       C  0.32822291  0.14882199  0.94921135    -0.08200
C1231       C  0.31620913  0.13224753  0.98070114    -0.02700
C1232       C  0.32268496  0.09134644  0.98658685     0.04100
N1233       N  0.30923473  0.07175742  0.01716992     0.66600
H1234       H  0.35025318  0.03830919  0.96776413     0.15500
H1235       H  0.32320294  0.17992488  0.94391887     0.15200
N1236       N  0.36296725  0.14541570  0.89442943     0.74300
O1237       O  0.27697265  0.05219010  0.01568147    -0.39200
O1238       O  0.33498596  0.06222545  0.03950565    -0.39100
O1239       O  0.33732085  0.15082578  0.87097856    -0.39800
O1240       O  0.39312649  0.16806257  0.89587922    -0.39900
C1241       C  0.07789961  0.09177772  0.20352027    -0.12200
C1242       C  0.07334314  0.10820994  0.23657564     0.04800
C1243       C  0.09048779  0.14585047  0.24356040    -0.07400
C1244       C  0.11430545  0.16416448  0.21873793    -0.08200
C1245       C  0.12115965  0.14637242  0.18663482    -0.02700
C1246       C  0.10136039  0.11038040  0.17853265     0.04100
N1247       N  0.10620108  0.09076955  0.14605076     0.66600
H1248       H  0.06477899  0.06321451  0.19728066     0.15500
H1249       H  0.12771894  0.19265525  0.22483738     0.15200
N1250       N  0.08397511  0.16655638  0.27529503     0.74300
O1251       O  0.13107295  0.06285361  0.14409561    -0.39200
O1252       O  0.07738535  0.09134281  0.12493083    -0.39100
O1253       O  0.11219566  0.16820297  0.29697275    -0.39800
O1254       O  0.05782609  0.19339276  0.27579901    -0.39900
C1255       C  0.18332583  0.38130861  0.43442233    -0.12200
C1256       C  0.14738359  0.40163708  0.43923017     0.04800
C1257       C  0.12532874  0.39520697  0.46988312    -0.07400
C1258       C  0.13941359  0.36864665  0.49476095    -0.08200
C1259       C  0.17581527  0.34862958  0.49037671    -0.02700
C1260       C  0.19788534  0.35525032  0.45950516     0.04100
N1261       N  0.23633585  0.33822122  0.45373772     0.66600
H1262       H  0.20104244  0.38680362  0.41138158     0.15500
H1263       H  0.12173185  0.36402462  0.51795081     0.15200
N1264       N  0.08893347  0.41574650  0.47670083     0.74300
O1265       O  0.23927749  0.31124195  0.43126917    -0.39200
O1266       O  0.26690929  0.35897289  0.46050359    -0.39100
O1267       O  0.05618527  0.39780533  0.47172331    -0.39800
O1268       O  0.08975288  0.44439007  0.49770771    -0.39900
C1269       C  0.17081025  0.65769475  0.23888321    -0.12200
C1270       C  0.15006591  0.65578418  0.20734741     0.04800
C1271       C  0.11760845  0.62869254  0.20437891    -0.07400
C1272       C  0.10784473  0.60387801  0.23215732    -0.08200
C1273       C  0.13003524  0.60485212  0.26282417    -0.02700
C1274       C  0.16140100  0.63259287  0.26624089     0.04100
N1275       N  0.18507367  0.63528336  0.29682653     0.66600
H1276       H  0.19584732  0.67785289  0.24222186     0.15500
H1277       H  0.08363431  0.58258824  0.22931022     0.15200
N1278       N  0.09400680  0.62556224  0.17373706     0.74300
O1279       O  0.21834375  0.61775832  0.29745982    -0.39200
O1280       O  0.18042351  0.66529490  0.31578766    -0.39100
O1281       O  0.09918954  0.59601132  0.15424239    -0.39800
O1282       O  0.06064143  0.64290593  0.17307048    -0.39900
C1283       C  0.16915956  0.66233297  0.46121641    -0.12200
C1284       C  0.14982485  0.65919222  0.49338617     0.04800
C1285       C  0.11874208  0.63055111  0.49678682    -0.07400
C1286       C  0.10902461  0.60560635  0.46891975    -0.08200
C1287       C  0.13019485  0.60747925  0.43770976    -0.02700
C1288       C  0.16020180  0.63666956  0.43388988     0.04100
N1289       N  0.18349406  0.63985142  0.40312784     0.66600
H1290       H  0.19316947  0.68360337  0.45749207     0.15500
H1291       H  0.08596276  0.58320223  0.47226165     0.15200
N1292       N  0.09708767  0.62530049  0.52827687     0.74300
O1293       O  0.17660224  0.66867112  0.38338607    -0.39200
O1294       O  0.21793989  0.62465705  0.40277683    -0.39100
O1295       O  0.06229190  0.63949673  0.53037055    -0.39800
O1296       O  0.10607499  0.59643101  0.54740386    -0.39900
C1297       C  0.17566186  0.37563265  0.26667960    -0.12200
C1298       C  0.14164037  0.39875676  0.26143981     0.04800
C1299       C  0.11986530  0.39402450  0.23031962    -0.07400
C1300       C  0.13270594  0.36683572  0.20527632    -0.08200
C1301       C  0.16699872  0.34374541  0.21037533    -0.02700
C1302       C  0.18838065  0.34823843  0.24193041     0.04100
N1303       N  0.22408671  0.32678917  0.24921661     0.66600
H1304       H  0.19319033  0.37950614  0.29007491     0.15500
H1305       H  0.11553051  0.36380902  0.18161509     0.15200
N1306       N  0.08442627  0.41612284  0.22359701     0.74300
O1307       O  0.25733515  0.34358430  0.24368605    -0.39200
O1308       O  0.22239023  0.29978472  0.27171100    -0.39100
O1309       O  0.08645698  0.44476114  0.20272455    -0.39800
O1310       O  0.05098529  0.39941035  0.22835101    -0.39900
C1311       C  0.38703987  0.88007973  0.46644388    -0.12200
C1312       C  0.39674322  0.85279930  0.44071743     0.04800
C1313       C  0.38063425  0.81434857  0.44205070    -0.07400
C1314       C  0.35428158  0.80386302  0.46885448    -0.08200
C1315       C  0.34467937  0.83101508  0.49538419    -0.02700
C1316       C  0.36174656  0.86956693  0.49388450     0.04100
N1317       N  0.35421170  0.89876733  0.51972848     0.66600
H1318       H  0.40027568  0.90945227  0.46579528     0.15500
H1319       H  0.34241793  0.77393548  0.46960216     0.15200
N1320       N  0.39313121  0.78526539  0.41741749     0.74300
O1321       O  0.38023408  0.90383843  0.54301428    -0.39200
O1322       O  0.33182402  0.92740008  0.51197620    -0.39100
O1323       O  0.42689095  0.76920301  0.42122614    -0.39800
O1324       O  0.37694810  0.78468649  0.38792151    -0.39900
C1325       C  0.63914597  0.87094938  0.21076075    -0.12200
C1326       C  0.65575487  0.83257780  0.20998090     0.04800
C1327       C  0.64564257  0.80583142  0.23697515    -0.07400
C1328       C  0.61963361  0.81732933  0.26324877    -0.08200
C1329       C  0.60281462  0.85486005  0.26351736    -0.02700
C1330       C  0.61284884  0.88213179  0.23753230     0.04100
N1331       N  0.59614957  0.92098486  0.23843791     0.66600
H1332       H  0.64661941  0.89213469  0.19071499     0.15500
H1333       H  0.61122071  0.79611518  0.28303691     0.15200
N1334       N  0.65869140  0.76568602  0.23716350     0.74300
O1335       O  0.60923080  0.94535287  0.26056499    -0.39200
O1336       O  0.56171059  0.92622800  0.22587132    -0.39100
O1337       O  0.68335393  0.75543743  0.26015037    -0.39800
O1338       O  0.63534732  0.73972600  0.22489457    -0.39900
C1339       C  0.61186140  0.88102506  0.46705350    -0.12200
C1340       C  0.60541911  0.85281668  0.44099267     0.04800
C1341       C  0.62630549  0.81672019  0.44239453    -0.07400
C1342       C  0.65251378  0.80936470  0.46969274    -0.08200
C1343       C  0.65828306  0.83682183  0.49661129    -0.02700
C1344       C  0.63774219  0.87339193  0.49487741     0.04100
N1345       N  0.64302700  0.90357692  0.52035506     0.66600
H1346       H  0.59589083  0.90886929  0.46619233     0.15500
H1347       H  0.66716209  0.78081770  0.47046968     0.15200
N1348       N  0.61963803  0.78595367  0.41765124     0.74300
O1349       O  0.66611192  0.93219079  0.51338962    -0.39200
O1350       O  0.61550967  0.90880220  0.54225769    -0.39100
O1351       O  0.64634465  0.77957646  0.39524230    -0.39800
O1352       O  0.59601975  0.75810553  0.42558273    -0.39900
C1353       C  0.35851729  0.86652006  0.20958941    -0.12200
C1354       C  0.33963173  0.82951386  0.21297074     0.04800
C1355       C  0.34772141  0.80661550  0.24285393    -0.07400
C1356       C  0.37453369  0.82068390  0.26782584    -0.08200
C1357       C  0.39385963  0.85725456  0.26412011    -0.02700
C1358       C  0.38534095  0.88057168  0.23472276     0.04100
N1359       N  0.40332716  0.91854952  0.22973747     0.66600
H1360       H  0.35248960  0.88478694  0.18716595     0.15500
H1361       H  0.38142509  0.80213369  0.28989719     0.15200
N1362       N  0.33118346  0.76796703  0.24770338     0.74300
O1363       O  0.38393067  0.94873449  0.23898845    -0.39200
O1364       O  0.42956851  0.92229080  0.20644155    -0.39100
O1365       O  0.35276937  0.73847742  0.24062315    -0.39800
O1366       O  0.30347702  0.76378530  0.26962525    -0.39900
C1367       C  0.86878692  0.63380832  0.49616428    -0.12200
C1368       C  0.82982412  0.64993928  0.49755224     0.04800
C1369       C  0.80248306  0.63999675  0.47066023    -0.07400
C1370       C  0.81396950  0.61470093  0.44398832    -0.08200
C1371       C  0.85213671  0.59860508  0.44305374    -0.02700
C1372       C  0.88000641  0.60843617  0.46884191     0.04100
N1373       N  0.91966656  0.59286350  0.46686021     0.66600
H1374       H  0.89053998  0.64129489  0.51594718     0.15500
H1375       H  0.79232936  0.60646811  0.42428694     0.15200
N1376       N  0.76192850  0.65306050  0.47060461     0.74300
O1377       O  0.94338731  0.60709024  0.44461825    -0.39200
O1378       O  0.92592168  0.55837711  0.47807989    -0.39100
O1379       O  0.75162176  0.67755539  0.44769880    -0.39800
O1380       O  0.73559861  0.62997466  0.48270278    -0.39900
C1381       C  0.87271699  0.39420905  0.23560560    -0.12200
C1382       C  0.84784850  0.39584161  0.26466505     0.04800
C1383       C  0.81351174  0.37145261  0.26610395    -0.07400
C1384       C  0.80452763  0.34642674  0.23845829    -0.08200
C1385       C  0.82845985  0.34565365  0.20859867    -0.02700
C1386       C  0.86310264  0.37003661  0.20738843     0.04100
N1387       N  0.88891149  0.37124700  0.17798419     0.66600
H1388       H  0.89900704  0.41314737  0.23426322     0.15500
H1389       H  0.77750711  0.32857704  0.23996646     0.15200
N1390       N  0.78624973  0.37282469  0.29453561     0.74300
O1391       O  0.88513998  0.39953575  0.15695881    -0.39200
O1392       O  0.92232204  0.35411352  0.17994826    -0.39100
O1393       O  0.75403935  0.39175244  0.29092496    -0.39800
O1394       O  0.78742082  0.34528690  0.31650923    -0.39900
C1395       C  0.80877204  0.34328498  0.46642415    -0.12200
C1396       C  0.83455192  0.33874721  0.49479874     0.04800
C1397       C  0.87121555  0.36009476  0.49494839    -0.07400
C1398       C  0.88011600  0.38643153  0.46792226    -0.08200
C1399       C  0.85326503  0.39202564  0.44057651    -0.02700
C1400       C  0.81760279  0.36952034  0.43964401     0.04100
N1401       N  0.78896347  0.37390713  0.41254017     0.66600
H1402       H  0.78042854  0.32752895  0.46552989     0.15500
H1403       H  0.90784715  0.40326344  0.46862754     0.15200
N1404       N  0.90039625  0.35488020  0.52147480     0.74300
O1405       O  0.78719527  0.34742820  0.38953144    -0.39200
O1406       O  0.75828329  0.39457340  0.41824371    -0.39100
O1407       O  0.93072367  0.33407356  0.51478089    -0.39800
O1408       O  0.90293095  0.38064341  0.54506289    -0.39900
C1409       C  0.81203618  0.61580276  0.26358149    -0.12200
C1410       C  0.85094986  0.60161546  0.26595000     0.04800
C1411       C  0.87949438  0.61255505  0.24102451    -0.07400
C1412       C  0.86839617  0.63725189  0.21331372    -0.08200
C1413       C  0.82876479  0.65116450  0.21048430    -0.02700
C1414       C  0.80053875  0.63994442  0.23617473     0.04100
N1415       N  0.75910219  0.64967097  0.23363438     0.66600
H1416       H  0.78976917  0.60630812  0.28229334     0.15500
H1417       H  0.89057836  0.64560588  0.19416069     0.15200
N1418       N  0.91947812  0.59805896  0.24379977     0.74300
O1419       O  0.73564159  0.62403329  0.22099422    -0.39200
O1420       O  0.74512008  0.67443570  0.25484695    -0.39100
O1421       O  0.92695110  0.56370585  0.23273641    -0.39800
O1422       O  0.94229641  0.61311548  0.26634825    -0.39900
C1423       C  0.63514167  0.12024857  0.49466473    -0.12200
C1424       C  0.64793730  0.16023563  0.49492236     0.04800
C1425       C  0.63705257  0.18469879  0.46661695    -0.07400
C1426       C  0.61319754  0.16974524  0.44005666    -0.08200
C1427       C  0.59961591  0.13080126  0.44054853    -0.02700
C1428       C  0.61137053  0.10545418  0.46732504     0.04100
N1429       N  0.59949814  0.06475230  0.46627104     0.66600
H1430       H  0.64388223  0.10056146  0.51540633     0.15500
H1431       H  0.60363790  0.18935822  0.41948889     0.15200
N1432       N  0.64737821  0.22569314  0.46501271     0.74300
O1433       O  0.56489683  0.05540746  0.47668452    -0.39200
O1434       O  0.61703428  0.04203122  0.44525851    -0.39100
O1435       O  0.67193146  0.23653107  0.44202586    -0.39800
O1436       O  0.62193873  0.25041107  0.47560954    -0.39900
C1437       C  0.39103176  0.11483179  0.23492958    -0.12200
C1438       C  0.39274146  0.13832298  0.26475562     0.04800
C1439       C  0.36777124  0.17174926  0.26720230    -0.07400
C1440       C  0.34222607  0.18125033  0.23988928    -0.08200
C1441       C  0.34133896  0.15872144  0.20931642    -0.02700
C1442       C  0.36617513  0.12482788  0.20713504     0.04100
N1443       N  0.36732300  0.10025700  0.17706414     0.66600
H1444       H  0.41031317  0.08921913  0.23271907     0.15500
H1445       H  0.32408719  0.20762285  0.24228176     0.15200
N1446       N  0.36927733  0.19778204  0.29631354     0.74300
O1447       O  0.39591916  0.10484957  0.15605858    -0.39200
O1448       O  0.34963750  0.06715744  0.17805415    -0.39100
O1449       O  0.38753699  0.23039442  0.29314833    -0.39800
O1450       O  0.34233204  0.19475894  0.31907154    -0.39900
C1451       C  0.38172621  0.16818816  0.44174363    -0.12200
C1452       C  0.39106652  0.12798255  0.44029929     0.04800
C1453       C  0.37436266  0.10200864  0.46506721    -0.07400
C1454       C  0.34994128  0.11705119  0.49150038    -0.08200
C1455       C  0.34152174  0.15757960  0.49343592    -0.02700
C1456       C  0.35750498  0.18325057  0.46793546     0.04100
N1457       N  0.35201237  0.22513170  0.46932340     0.66600
H1458       H  0.39499358  0.18845518  0.42318821     0.15500
H1459       H  0.33725690  0.09691727  0.51042943     0.15200
N1460       N  0.38113924  0.06039338  0.46363944     0.74300
O1461       O  0.37888042  0.24601573  0.48346282    -0.39200
O1462       O  0.32976990  0.24096287  0.44694908    -0.39100
O1463       O  0.40467435  0.04523070  0.48537428    -0.39800
O1464       O  0.35470247  0.03869831  0.44982519    -0.39900
C1465       C  0.64942593  0.18219394  0.24046736    -0.12200
C1466       C  0.65243228  0.15859196  0.21027493     0.04800
C1467       C  0.62924106  0.12323833  0.20869004    -0.07400
C1468       C  0.60482618  0.11227926  0.23655147    -0.08200
C1469       C  0.60127103  0.13639169  0.26566861    -0.02700
C1470       C  0.62351271  0.17173435  0.26763998     0.04100
N1471       N  0.61753584  0.19843150  0.29595380     0.66600
H1472       H  0.66574075  0.20993700  0.24232976     0.15500
H1473       H  0.58684956  0.08552229  0.23471000     0.15200
N1474       N  0.62857018  0.09831649  0.17889319     0.74300
O1475       O  0.63835395  0.19456573  0.32296448    -0.39200
O1476       O  0.58540140  0.21787674  0.29754289    -0.39100
O1477       O  0.64753881  0.06614166  0.18016160    -0.39800
O1478       O  0.59865541  0.10048840  0.15903828    -0.39900
C1479       C  0.62796967  0.38573612  0.93848753    -0.12200
C1480       C  0.58950332  0.39382114  0.95096846     0.04800
C1481       C  0.57616370  0.37468701  0.98133747    -0.07400
C1482       C  0.60222506  0.35074646  0.99991816    -0.08200
C1483       C  0.64176177  0.34473103  0.98904023    -0.02700
C1484       C  0.65415869  0.36132843  0.95704937     0.04100
N1485       N  0.69344237  0.35551204  0.94349416     0.66600
H1486       H  0.63831465  0.39986469  0.91492695     0.15500
H1487       H  0.59135870  0.33722153  0.02358156     0.15200
N1488       N  0.53655922  0.37975646  0.99447025     0.74300
O1489       O  0.69803917  0.32985821  0.92007122    -0.39200
O1490       O  0.71835988  0.38365475  0.94555867    -0.39100
O1491       O  0.51195716  0.35155677  0.99082993    -0.39800
O1492       O  0.53116083  0.40412952  0.01878657    -0.39900
C1493       C  0.36631423  0.61448177  0.93950817    -0.12200
C1494       C  0.39877537  0.59660004  0.95568035     0.04800
C1495       C  0.40629097  0.60399029  0.99081905    -0.07400
C1496       C  0.38102052  0.62903054  0.00949278    -0.08200
C1497       C  0.34737709  0.64680442  0.99382036    -0.02700
C1498       C  0.34049938  0.63931406  0.95805868     0.04100
N1499       N  0.30663474  0.65457524  0.94012080     0.66600
H1500       H  0.36027371  0.60815353  0.91249833     0.15500
H1501       H  0.38752689  0.63391749  0.03663929     0.15200
N1502       N  0.43847949  0.58439044  0.00805105     0.74300
O1503       O  0.31205626  0.68357640  0.92008178    -0.39200
O1504       O  0.27772246  0.63132091  0.93413042    -0.39100
O1505       O  0.47345489  0.59840654  0.00551358    -0.39800
O1506       O  0.43393387  0.54879348  0.01721797    -0.39900
C1507       C  0.57876624  0.60575720  0.98963353    -0.12200
C1508       C  0.58912518  0.59919252  0.95528318     0.04800
C1509       C  0.62235428  0.61863347  0.94101722    -0.07400
C1510       C  0.64566117  0.64408603  0.96190773    -0.08200
C1511       C  0.63596832  0.65011431  0.99723062    -0.02700
C1512       C  0.60139990  0.63069266  0.01065545     0.04100
N1513       N  0.58822936  0.63532241  0.04556614     0.66600
H1514       H  0.55319971  0.59034377  0.00060330     0.15500
H1515       H  0.67177123  0.65832610  0.95072755     0.15200
N1516       N  0.63263045  0.61185694  0.90561974     0.74300
O1517       O  0.55881963  0.65773671  0.05123051    -0.39200
O1518       O  0.59481544  0.60745626  0.06649719    -0.39100
O1519       O  0.61140836  0.62752808  0.88240885    -0.39800
O1520       O  0.65282812  0.58156626  0.89809092    -0.39900
C1521       C  0.34369763  0.34974880  0.96000764    -0.12200
C1522       C  0.35834487  0.34099760  0.99321917     0.04800
C1523       C  0.39594422  0.35681058  0.00318752    -0.07400
C1524       C  0.41668985  0.38202689  0.98093302    -0.08200
C1525       C  0.40127056  0.39216673  0.94854440    -0.02700
C1526       C  0.36462433  0.37526636  0.93775084     0.04100
N1527       N  0.34792571  0.38356504  0.90462228     0.66600
H1528       H  0.31507112  0.33787997  0.95161883     0.15500
H1529       H  0.44464871  0.39512665  0.98963282     0.15200
N1530       N  0.41388023  0.34795639  0.03575915     0.74300
O1531       O  0.32006280  0.40854309  0.90262915    -0.39200
O1532       O  0.35044848  0.35729107  0.88152392    -0.39100
O1533       O  0.44132717  0.32244185  0.03663774    -0.39800
O1534       O  0.41245189  0.37372108  0.05940694    -0.39900
C1535       C  0.62321160  0.62994639  0.77463638    -0.12200
C1536       C  0.60269145  0.59874872  0.75891780     0.04800
C1537       C  0.60856107  0.59101875  0.72359121    -0.07400
C1538       C  0.63394571  0.61524322  0.70413367    -0.08200
C1539       C  0.65400719  0.64793175  0.71916841    -0.02700
C1540       C  0.64897688  0.65440634  0.75535183     0.04100
N1541       N  0.66852869  0.68595368  0.77327847     0.66600
H1542       H  0.61859234  0.63583105  0.80192089     0.15500
H1543       H  0.63741367  0.60848402  0.67688498     0.15200
N1544       N  0.58831020  0.55861339  0.70723227     0.74300
O1545       O  0.64867614  0.71682994  0.77953601    -0.39200
O1546       O  0.69724851  0.67740771  0.79308632    -0.39100
O1547       O  0.55170173  0.56173052  0.69965688    -0.39800
O1548       O  0.60366689  0.52466350  0.70874677    -0.39900
C1549       C  0.64087499  0.34791180  0.74758863    -0.12200
C1550       C  0.65662327  0.36029327  0.71531966     0.04800
C1551       C  0.65003108  0.40002313  0.70497218    -0.07400
C1552       C  0.62535274  0.42452750  0.72443790    -0.08200
C1553       C  0.60755281  0.41139557  0.75486962    -0.02700
C1554       C  0.61666412  0.37354799  0.76745673     0.04100
N1555       N  0.60077196  0.36126116  0.80008800     0.66600
H1556       H  0.64606888  0.31806067  0.75670902     0.15500
H1557       H  0.61875163  0.45375568  0.71483252     0.15200
N1558       N  0.66783282  0.41662890  0.67468811     0.74300
O1559       O  0.56650187  0.34535706  0.80100012    -0.39200
O1560       O  0.61425397  0.37739479  0.82720840    -0.39100
O1561       O  0.64559730  0.42267808  0.64886418    -0.39800
O1562       O  0.69857933  0.43811290  0.67846433    -0.39900
C1563       C  0.38496401  0.42007359  0.71761318    -0.12200
C1564       C  0.39919775  0.40626244  0.74932193     0.04800
C1565       C  0.38881323  0.36761649  0.76011580    -0.07400
C1566       C  0.36437640  0.34382860  0.73905992    -0.08200
C1567       C  0.35144946  0.35717536  0.70661029    -0.02700
C1568       C  0.36184392  0.39606729  0.69609108     0.04100
N1569       N  0.34967305  0.41204560  0.66359982     0.66600
H1570       H  0.39338543  0.44942457  0.70874187     0.15500
H1571       H  0.35716980  0.31400600  0.74743088     0.15200
N1572       N  0.40387660  0.35126959  0.79148597     0.74300
O1573       O  0.31977467  0.43471900  0.66300712    -0.39200
O1574       O  0.37546991  0.41501445  0.63984550    -0.39100
O1575       O  0.37961852  0.34533205  0.81595603    -0.39800
O1576       O  0.43543013  0.33092592  0.79024932    -0.39900
C1577       C  0.37120830  0.61680397  0.69407620    -0.12200
C1578       C  0.34516792  0.64347742  0.71040228     0.04800
C1579       C  0.34524631  0.64479016  0.74720978    -0.07400
C1580       C  0.37187169  0.62114574  0.76611478    -0.08200
C1581       C  0.39812565  0.59557345  0.74926974    -0.02700
C1582       C  0.39729235  0.59318472  0.71291932     0.04100
N1583       N  0.42333198  0.56738384  0.69436520     0.66600
H1584       H  0.37199031  0.61422866  0.66613858     0.15500
H1585       H  0.37220207  0.62294098  0.79412625     0.15200
N1586       N  0.31897558  0.66960638  0.76631998     0.74300
O1587       O  0.40911128  0.53540219  0.68258802    -0.39200
O1588       O  0.45415664  0.58197958  0.68030243    -0.39100
O1589       O  0.29129478  0.65324566  0.78334272    -0.39800
O1590       O  0.33243115  0.70236178  0.77687023    -0.39900
loop_ 
_geom_bond_atom_site_label_1 
_geom_bond_atom_site_label_2 
_geom_bond_distance 
_geom_bond_site_symmetry_2 
_ccdc_geom_bond_type 
N1            C6   1.353       .  A
N1            C5   1.354       .  A
N1           H33   1.042       .  S
N2            C9   1.350       .  A
N2           C10   1.349       .  A
N3            C8   1.354       .  A
N3            C7   1.353       .  A
N3           H34   1.040       .  S
N4           C11   1.352       .  A
N4           C12   1.350       .  A
C5           C13   1.387       .  A
C5           C21   1.413       .  A
C6           C22   1.413       .  A
C6           C14   1.388       .  A
C7           C15   1.388       .  A
C7           C24   1.414       .  A
C8           C23   1.413       .  A
C8           C16   1.387       .  A
C9           C21   1.408       .  A
C9           C17   1.385       .  A
C10          C24   1.407       .  A
C10          C18   1.387       .  A
C11          C19   1.387       .  A
C11          C22   1.415       .  A
C12          C20   1.385       .  A
C12          C23   1.408       .  A
C13          C14   1.369       .  A
C13          H25   1.082       .  S
C14          H26   1.082       .  S
C15          C16   1.370       .  A
C15          H27   1.082       .  S
C16          H28   1.082       .  S
C17          C18   1.372       .  A
C17          H29   1.083       .  S
C18          H30   1.083       .  S
C19          C20   1.373       .  A
C19          H31   1.082       .  S
C20          H32   1.082       .  S
C21        C1553   1.487       .  S
C22        C1564   1.487       .  S
C23        C1581   1.485       .  S
C24        C1536   1.482       .  S
N35          C40   1.349       .  A
N35          C39   1.349       .  A
N35          H67   1.034       .  S
N36          C43   1.352       .  A
N36          C44   1.353       .  A
N37          C42   1.351       .  A
N37          C41   1.349       .  A
N37          H68   1.037       .  S
N38          C45   1.352       .  A
N38          C46   1.354       .  A
C39          C47   1.388       .  A
C39          C55   1.410       .  A
C40          C56   1.410       .  A
C40          C48   1.387       .  A
C41          C49   1.385       .  A
C41          C58   1.408       .  A
C42          C57   1.412       .  A
C42          C50   1.386       .  A
C43          C55   1.414       .  A
C43          C51   1.387       .  A
C44          C58   1.415       .  A
C44          C52   1.387       .  A
C45          C53   1.387       .  A
C45          C56   1.413       .  A
C46          C54   1.386       .  A
C46          C57   1.414       .  A
C47          C48   1.376       .  A
C47          H59   1.083       .  S
C48          H60   1.083       .  S
C49          C50   1.378       .  A
C49          H61   1.082       .  S
C50          H62   1.082       .  S
C51          C52   1.369       .  A
C51          H63   1.083       .  S
C52          H64   1.082       .  S
C53          C54   1.369       .  A
C53          H65   1.082       .  S
C54          H66   1.082       .  S
C55        C1508   1.478       .  S
C56        C1494   1.479       .  S
C57        C1525   1.487       .  S
C58        C1480   1.487       .  S
N69          C74   1.354       .  A
N69          C73   1.354       .  A
N69         H101   1.041       .  S
N70          C77   1.352       .  A
N70          C78   1.351       .  A
N71          C76   1.353       .  A
N71          C75   1.354       .  A
N71         H102   1.040       .  S
N72          C79   1.347       .  A
N72          C80   1.348       .  A
C73          C81   1.388       .  A
C73          C89   1.416       .  A
C74          C90   1.414       .  A
C74          C82   1.388       .  A
C75          C83   1.388       .  A
C75          C92   1.416       .  A
C76          C91   1.414       .  A
C76          C84   1.387       .  A
C77          C89   1.411       .  A
C77          C85   1.385       .  A
C78          C92   1.412       .  A
C78          C86   1.385       .  A
C79          C87   1.386       .  A
C79          C90   1.406       .  A
C80          C88   1.386       .  A
C80          C91   1.408       .  A
C81          C82   1.371       .  A
C81          H93   1.082       .  S
C82          H94   1.082       .  S
C83          C84   1.371       .  A
C83          H95   1.082       .  S
C84          H96   1.082       .  S
C85          C86   1.374       .  A
C85          H97   1.082       .  S
C86          H98   1.082       .  S
C87          C88   1.374       .  A
C87          H99   1.083       .  S
C88         H100   1.082       .  S
C89        C1452   1.486       .  S
C90        C1427   1.479       .  S
C91        C1469   1.484       .  S
C92        C1438   1.489       .  S
N103        C108   1.353       .  A
N103        C107   1.353       .  A
N103        H135   1.039       .  S
N104        C111   1.350       .  A
N104        C112   1.348       .  A
N105        C110   1.356       .  A
N105        C109   1.353       .  A
N105        H136   1.040       .  S
N106        C113   1.347       .  A
N106        C114   1.348       .  A
C107        C115   1.387       .  A
C107        C123   1.413       .  A
C108        C124   1.415       .  A
C108        C116   1.388       .  A
C109        C117   1.388       .  A
C109        C126   1.415       .  A
C110        C125   1.415       .  A
C110        C118   1.386       .  A
C111        C123   1.408       .  A
C111        C119   1.386       .  A
C112        C126   1.409       .  A
C112        C120   1.387       .  A
C113        C121   1.386       .  A
C113        C124   1.406       .  A
C114        C122   1.385       .  A
C114        C125   1.406       .  A
C115        C116   1.369       .  A
C115        H127   1.082       .  S
C116        H128   1.082       .  S
C117        C118   1.371       .  A
C117        H129   1.082       .  S
C118        H130   1.082       .  S
C119        C120   1.373       .  A
C119        H131   1.083       .  S
C120        H132   1.083       .  S
C121        C122   1.373       .  A
C121        H133   1.082       .  S
C122        H134   1.082       .  S
C123       C1410   1.480       .  S
C124       C1382   1.481       .  S
C125       C1399   1.488       .  S
C126       C1371   1.479       .  S
N137        C142   1.353       .  A
N137        C141   1.356       .  A
N137        H169   1.040       .  S
N138        C145   1.354       .  A
N138        C146   1.352       .  A
N139        C144   1.356       .  A
N139        C143   1.352       .  A
N139        H170   1.038       .  S
N140        C147   1.349       .  A
N140        C148   1.352       .  A
C141        C149   1.387       .  A
C141        C157   1.416       .  A
C142        C158   1.415       .  A
C142        C150   1.388       .  A
C143        C151   1.389       .  A
C143        C160   1.416       .  A
C144        C159   1.415       .  A
C144        C152   1.386       .  A
C145        C157   1.416       .  A
C145        C153   1.386       .  A
C146        C160   1.414       .  A
C146        C154   1.386       .  A
C147        C155   1.387       .  A
C147        C158   1.410       .  A
C148        C156   1.385       .  A
C148        C159   1.410       .  A
C149        C150   1.372       .  A
C149        H161   1.082       .  S
C150        H162   1.082       .  S
C151        C152   1.370       .  A
C151        H163   1.082       .  S
C152        H164   1.082       .  S
C153        C154   1.374       .  A
C153        H165   1.082       .  S
C154        H166   1.082       .  S
C155        C156   1.373       .  A
C155        H167   1.083       .  S
C156        H168   1.082       .  S
C157       C1357   1.493       .  S
C158       C1329   1.480       .  S
C159       C1340   1.490       .  S
C160       C1312   1.483       .  S
N171        C176   1.353       .  A
N171        C175   1.355       .  A
N171        H203   1.042       .  S
N172        C179   1.348       .  A
N172        C180   1.346       .  A
N173        C178   1.353       .  A
N173        C177   1.353       .  A
N173        H204   1.042       .  S
N174        C181   1.353       .  A
N174        C182   1.354       .  A
C175        C183   1.387       .  A
C175        C191   1.416       .  A
C176        C192   1.413       .  A
C176        C184   1.387       .  A
C177        C185   1.388       .  A
C177        C194   1.415       .  A
C178        C193   1.412       .  A
C178        C186   1.386       .  A
C179        C191   1.407       .  A
C179        C187   1.385       .  A
C180        C194   1.406       .  A
C180        C188   1.386       .  A
C181        C189   1.386       .  A
C181        C192   1.416       .  A
C182        C190   1.386       .  A
C182        C193   1.417       .  A
C183        C184   1.374       .  A
C183        H195   1.082       .  S
C184        H196   1.082       .  S
C185        C186   1.373       .  A
C185        H197   1.082       .  S
C186        H198   1.082       .  S
C187        C188   1.377       .  A
C187        H199   1.082       .  S
C188        H200   1.082       .  S
C189        C190   1.376       .  A
C189        H201   1.082       .  S
C190        H202   1.082       .  S
C191       C1287   1.492       .  S
C192       C1256   1.491       .  S
C193       C1298   1.495       .  S
C194       C1273   1.482       .  S
Zr205       O206   2.438       .  S
Zr205       O207   2.440       .  S
Zr205       O208   2.434       .  S
Zr205       O211   2.445       .  S
Zr205       O213   2.385       .  S
Zr205       O214   2.373       .  S
Zr205       O215   2.416       .  S
Zr205       O216   2.398       .  S
O206        H262   0.990       .  S
O206        H270   0.990       .  S
O207        C227   1.286       .  A
O208        C229   1.282       .  A
O209       Zr219   2.419       .  S
O209        C228   1.280       .  A
O210       Zr218   2.459       .  S
O210        C229   1.291       .  A
O211        C228   1.287       .  A
O212       Zr220   2.380       .  S
O212        C227   1.272       .  A
O213       Zr218   2.395       .  S
O213       Zr220   2.390       .  S
O214       Zr219   2.384       .  S
O214       Zr220   2.383       .  S
O214        H249   0.968       .  S
O215       Zr218   2.400       .  S
O215       Zr235   2.388       .  S
O215        H252   0.966       .  S
O216       Zr219   2.382       .  S
O216       Zr235   2.397       .  S
Zr217       O242   2.442   1_554  S
Zr217       O236   2.435       .  S
Zr217       O244   2.450   1_554  S
Zr217       O232   2.434   1_554  S
Zr217       O223   2.398       .  S
Zr217       O224   2.408       .  S
Zr217       O225   2.384       .  S
Zr217       O226   2.384       .  S
Zr218       O237   2.435       .  S
Zr218       O230   2.436       .  S
Zr218       O231   2.445       .  S
Zr218       O224   2.404       .  S
Zr218       O225   2.397       .  S
Zr219       O221   2.435       .  S
Zr219       O243   2.434       .  S
Zr219       O245   2.393       .  S
Zr219       O223   2.395       .  S
Zr219       O226   2.400       .  S
Zr220       O246   2.437       .  S
Zr220       O247   2.436       .  S
Zr220       O222   2.440       .  S
Zr220       O223   2.377       .  S
Zr220       O224   2.383       .  S
O221        H258   0.990       .  S
O222        H253   0.990       .  S
O222        H267   0.990       .  S
O224        H250   0.969       .  S
O225       Zr235   2.377       .  S
O226       Zr235   2.378       .  S
O226        H251   0.968       .  S
C227       C1245   1.469       .  S
C228       C1441   1.489       .  S
C229       C1301   1.490       .  S
O230        H266   0.990       .  S
O231        C233   1.289       .  A
O232        C233   1.283   1_556  A
C233       C1214   1.474   1_554  S
O234       Zr235   2.436       .  S
O234        H263   0.990       .  S
Zr235       O238   2.438       .  S
Zr235       O239   2.435       .  S
Zr235       O240   2.418       .  S
O236        C241   1.284       .  A
O237        H254   0.990       .  S
O237        H269   0.990       .  S
O238        H255   0.990       .  S
O239        H259   0.990       .  S
O239        H268   0.990       .  S
O240        C241   1.280       .  A
C241       C1522   1.484   1_554  S
O242        H261   0.990       .  S
O242        H265   0.990       .  S
O243        H257   0.990       .  S
O243        H264   0.990       .  S
O244        C248   1.288   1_556  A
O245        C248   1.276       .  A
O246        H256   0.990       .  S
O247        H260   0.990       .  S
C248       C1231   1.470   1_554  S
Zr271       O272   2.441   1_554  S
Zr271       O273   2.453       .  S
Zr271       O274   2.445   1_554  S
Zr271       O277   2.438   1_554  S
Zr271       O279   2.385       .  S
Zr271       O280   2.388       .  S
Zr271       O281   2.408       .  S
Zr271       O282   2.399       .  S
O272        H328   0.990       .  S
O272        H336   0.991       .  S
O273        C293   1.286       .  A
O274        C295   1.287   1_556  A
O275       Zr285   2.419       .  S
O275        C294   1.282       .  A
O276       Zr284   2.429       .  S
O276        C295   1.283       .  A
O277        C294   1.287   1_556  A
O278       Zr286   2.424       .  S
O278        C293   1.284       .  A
O279       Zr284   2.401       .  S
O279       Zr286   2.379       .  S
O280       Zr285   2.400       .  S
O280       Zr286   2.372       .  S
O280        H315   0.965       .  S
O281       Zr284   2.409       .  S
O281       Zr301   2.374       .  S
O281        H318   0.964       .  S
O282       Zr285   2.391       .  S
O282       Zr301   2.380       .  S
Zr283       O308   2.440       .  S
Zr283       O302   2.445       .  S
Zr283       O310   2.438       .  S
Zr283       O298   2.437       .  S
Zr283       O289   2.403       .  S
Zr283       O290   2.409       .  S
Zr283       O291   2.377       .  S
Zr283       O292   2.380       .  S
Zr284       O303   2.435       .  S
Zr284       O296   2.435       .  S
Zr284       O297   2.450       .  S
Zr284       O290   2.390       .  S
Zr284       O291   2.393       .  S
Zr285       O287   2.434       .  S
Zr285       O309   2.437       .  S
Zr285       O311   2.422       .  S
Zr285       O289   2.392       .  S
Zr285       O292   2.395       .  S
Zr286       O312   2.434       .  S
Zr286       O313   2.437       .  S
Zr286       O288   2.436       .  S
Zr286       O289   2.398       .  S
Zr286       O290   2.386       .  S
O287        H324   0.990       .  S
O288        H319   0.990       .  S
O288        H333   0.990       .  S
O290        H316   0.966       .  S
O291       Zr301   2.388       .  S
O292       Zr301   2.381       .  S
O292        H317   0.965       .  S
C293       C1497   1.498   1_554  S
C294       C1172   1.474   1_554  S
C295       C1186   1.478   1_554  S
O296        H332   0.990       .  S
O297        C299   1.289       .  A
O298        C299   1.284       .  A
C299       C1354   1.486       .  S
O300       Zr301   2.434       .  S
O300        H329   0.990       .  S
Zr301       O304   2.435       .  S
Zr301       O305   2.436       .  S
Zr301       O306   2.383       .  S
O302        C307   1.287       .  A
O303        H320   0.990       .  S
O303        H335   0.989       .  S
O304        H321   0.989       .  S
O305        H325   0.990       .  S
O305        H334   0.990       .  S
O306        C307   1.273       .  A
C307       C1203   1.471       .  S
O308        H327   0.990       .  S
O308        H331   0.991       .  S
O309        H323   0.990       .  S
O309        H330   0.990       .  S
O310        C314   1.286       .  A
O311        C314   1.280       .  A
O312        H322   0.990       .  S
O313        H326   0.991       .  S
C314       C1270   1.488       .  S
Zr337       O338   2.441       .  S
Zr337       O339   2.440       .  S
Zr337       O340   2.459       .  S
Zr337       O343   2.438       .  S
Zr337       O345   2.383       .  S
Zr337       O346   2.385       .  S
Zr337       O347   2.408       .  S
Zr337       O348   2.400       .  S
O338        H394   0.990       .  S
O338        H402   0.990       .  S
O339        C359   1.283       .  A
O340        C361   1.290       .  A
O341       Zr351   2.456       .  S
O341        C360   1.288       .  A
O342       Zr350   2.434       .  S
O342        C361   1.283       .  A
O343        C360   1.286       .  A
O344       Zr352   2.414       .  S
O344        C359   1.281       .  A
O345       Zr350   2.402       .  S
O345       Zr352   2.383       .  S
O346       Zr351   2.390       .  S
O346       Zr352   2.378       .  S
O346        H381   0.966       .  S
O347       Zr350   2.402       .  S
O347       Zr367   2.392       .  S
O347        H384   0.964       .  S
O348       Zr351   2.388       .  S
O348       Zr367   2.391       .  S
Zr349       O374   2.442       .  S
Zr349       O368   2.436       .  S
Zr349       O376   2.427       .  S
Zr349       O364   2.441       .  S
Zr349       O355   2.407       .  S
Zr349       O356   2.414       .  S
Zr349       O357   2.382       .  S
Zr349       O358   2.391       .  S
Zr350       O369   2.437       .  S
Zr350       O362   2.435       .  S
Zr350       O363   2.432       .  S
Zr350       O356   2.406       .  S
Zr350       O357   2.401       .  S
Zr351       O353   2.435       .  S
Zr351       O375   2.438       .  S
Zr351       O377   2.436       .  S
Zr351       O355   2.393       .  S
Zr351       O358   2.401       .  S
Zr352       O378   2.434       .  S
Zr352       O379   2.435       .  S
Zr352       O354   2.437       .  S
Zr352       O355   2.387       .  S
Zr352       O356   2.394       .  S
O353        H390   0.990       .  S
O354        H385   0.990       .  S
O354        H399   0.990       .  S
O356        H382   0.963       .  S
O357       Zr367   2.379       .  S
O358       Zr367   2.380       .  S
O358        H383   0.966       .  S
C359       C1147   1.480       .  S
C360       C1315   1.493       .  S
C361       C1284   1.497       .  S
O362        H398   0.990       .  S
O363        C365   1.285       .  A
O364        C365   1.282       .  A
C365       C1130   1.477       .  S
O366       Zr367   2.436       .  S
O366        H395   0.991       .  S
Zr367       O370   2.435       .  S
Zr367       O371   2.438       .  S
Zr367       O372   2.423       .  S
O368        C373   1.280       .  A
O369        H386   0.990       .  S
O369        H401   0.990       .  S
O370        H387   0.990       .  S
O371        H391   0.990       .  S
O371        H400   0.989       .  S
O372        C373   1.285       .  A
C373       C1578   1.496       .  S
O374        H393   0.990       .  S
O374        H397   0.991       .  S
O375        H389   0.990       .  S
O375        H396   0.990       .  S
O376        C380   1.282       .  A
O377        C380   1.286       .  A
O378        H388   0.990       .  S
O379        H392   0.990       .  S
C380       C1158   1.474       .  S
Zr403       O404   2.442       .  S
Zr403       O405   2.451       .  S
Zr403       O406   2.448       .  S
Zr403       O409   2.437       .  S
Zr403       O411   2.383       .  S
Zr403       O412   2.386       .  S
Zr403       O413   2.410       .  S
Zr403       O414   2.400       .  S
O404        H460   0.990       .  S
O404        H468   0.991       .  S
O405        C425   1.288       .  A
O406        C427   1.287       .  A
O407       Zr417   2.430       .  S
O407        C426   1.286       .  A
O408       Zr416   2.434       .  S
O408        C427   1.283       .  A
O409        C426   1.284       .  A
O410       Zr418   2.404       .  S
O410        C425   1.278       .  A
O411       Zr416   2.408       .  S
O411       Zr418   2.385       .  S
O412       Zr417   2.389       .  S
O412       Zr418   2.378       .  S
O412        H447   0.966       .  S
O413       Zr416   2.409       .  S
O413       Zr433   2.383       .  S
O413        H450   0.964       .  S
O414       Zr417   2.390       .  S
O414       Zr433   2.381       .  S
Zr415       O440   2.438       .  S
Zr415       O434   2.437       .  S
Zr415       O442   2.438       .  S
Zr415       O430   2.418       .  S
Zr415       O421   2.401       .  S
Zr415       O422   2.411       .  S
Zr415       O423   2.382       .  S
Zr415       O424   2.380       .  S
Zr416       O435   2.436       .  S
Zr416       O428   2.438       .  S
Zr416       O429   2.459       .  S
Zr416       O422   2.396       .  S
Zr416       O423   2.396       .  S
Zr417       O419   2.437       .  S
Zr417       O441   2.437       .  S
Zr417       O443   2.438       .  S
Zr417       O421   2.393       .  S
Zr417       O424   2.390       .  S
Zr418       O444   2.434       .  S
Zr418       O445   2.436       .  S
Zr418       O420   2.438       .  S
Zr418       O421   2.399       .  S
Zr418       O422   2.379       .  S
O419        H456   0.990       .  S
O420        H451   0.990       .  S
O420        H465   0.990       .  S
O422        H448   0.963       .  S
O423       Zr433   2.385       .  S
O424       Zr433   2.383       .  S
O424        H449   0.967       .  S
C425       C1567   1.480       .  S
C426       C1116   1.477       .  S
C427       C1102   1.476       .  S
O428        H464   0.990       .  S
O429        C431   1.289       .  A
O430        C431   1.280       .  A
C431       C1455   1.476       .  S
O432       Zr433   2.435       .  S
O432        H461   0.990       .  S
Zr433       O436   2.436       .  S
Zr433       O437   2.436       .  S
Zr433       O438   2.397       .  S
O434        C439   1.285       .  A
O435        H452   0.990       .  S
O435        H467   0.990       .  S
O436        H453   0.990       .  S
O437        H457   0.990       .  S
O437        H466   0.990       .  S
O438        C439   1.275       .  A
C439       C1088   1.471       .  S
O440        H459   0.990       .  S
O440        H463   0.989       .  S
O441        H455   0.990       .  S
O441        H462   0.990       .  S
O442        C446   1.281       .  A
O443        C446   1.287       .  A
O444        H454   0.989       .  S
O445        H458   0.990       .  S
C446       C1259   1.489       .  S
Zr469       O470   2.438       .  S
Zr469       O471   2.445       .  S
Zr469       O472   2.440       .  S
Zr469       O475   2.435       .  S
Zr469       O477   2.378       .  S
Zr469       O478   2.386       .  S
Zr469       O479   2.411       .  S
Zr469       O480   2.403       .  S
O470        H526   0.990       .  S
O470        H534   0.988       .  S
O471        C491   1.284       .  A
O472        C493   1.283       .  A
O473       Zr483   2.457       .  S
O473        C492   1.289       .  A
O474       Zr482   2.460       .  S
O474        C493   1.288       .  A
O475        C492   1.284       .  A
O476       Zr484   2.412       .  S
O476        C491   1.279       .  A
O477       Zr482   2.397       .  S
O477       Zr484   2.392       .  S
O478       Zr483   2.393       .  S
O478       Zr484   2.380       .  S
O478        H513   0.965       .  S
O479       Zr482   2.396       .  S
O479       Zr499   2.394       .  S
O479        H516   0.964       .  S
O480       Zr483   2.387       .  S
O480       Zr499   2.391       .  S
Zr481       O506   2.440   1_554  S
Zr481       O500   2.450       .  S
Zr481       O508   2.450   1_554  S
Zr481       O496   2.442   1_554  S
Zr481       O487   2.406       .  S
Zr481       O488   2.412       .  S
Zr481       O489   2.383       .  S
Zr481       O490   2.386       .  S
Zr482       O501   2.437       .  S
Zr482       O494   2.435       .  S
Zr482       O495   2.435       .  S
Zr482       O488   2.406       .  S
Zr482       O489   2.402       .  S
Zr483       O485   2.435       .  S
Zr483       O507   2.437       .  S
Zr483       O509   2.433       .  S
Zr483       O487   2.399       .  S
Zr483       O490   2.408       .  S
Zr484       O510   2.437       .  S
Zr484       O511   2.438       .  S
Zr484       O486   2.437       .  S
Zr484       O487   2.389       .  S
Zr484       O488   2.393       .  S
O485        H522   0.989       .  S
O486        H517   0.991       .  S
O486        H531   0.990       .  S
O488        H514   0.963       .  S
O489       Zr499   2.377       .  S
O490       Zr499   2.377       .  S
O490        H515   0.965       .  S
C491       C1077   1.473       .  S
C492       C1326   1.490       .  S
C493       C1413   1.487       .  S
O494        H530   0.990       .  S
O495        C497   1.286       .  A
O496        C497   1.285   1_556  A
C497       C1046   1.474   1_554  S
O498       Zr499   2.434       .  S
O498        H527   0.990       .  S
Zr499       O502   2.435       .  S
Zr499       O503   2.438       .  S
Zr499       O504   2.423       .  S
O500        C505   1.287       .  A
O501        H518   0.990       .  S
O501        H533   0.990       .  S
O502        H519   0.990       .  S
O503        H523   0.990       .  S
O503        H532   0.990       .  S
O504        C505   1.282       .  A
C505       C1511   1.496   1_554  S
O506        H525   0.990       .  S
O506        H529   0.990       .  S
O507        H521   0.989       .  S
O507        H528   0.990       .  S
O508        C512   1.289   1_556  A
O509        C512   1.284       .  A
O510        H520   0.990       .  S
O511        H524   0.990       .  S
C512       C1060   1.488   1_554  S
Zr535       O536   2.441       .  S
Zr535       O537   2.449       .  S
Zr535       O538   2.445       .  S
Zr535       O541   2.422       .  S
Zr535       O543   2.388       .  S
Zr535       O544   2.391       .  S
Zr535       O545   2.409       .  S
Zr535       O546   2.405       .  S
O536        H592   0.990       .  S
O536        H600   0.990       .  S
O537        C557   1.285       .  A
O538        C559   1.282       .  A
O539       Zr549   2.430       .  S
O539        C558   1.284       .  A
O540       Zr548   2.411       .  S
O540        C559   1.285       .  A
O541        C558   1.284       .  A
O542       Zr550   2.431       .  S
O542        C557   1.286       .  A
O543       Zr548   2.396       .  S
O543       Zr550   2.374       .  S
O544       Zr549   2.400       .  S
O544       Zr550   2.373       .  S
O544        H579   0.967       .  S
O545       Zr548   2.402       .  S
O545       Zr565   2.381       .  S
O545        H582   0.964       .  S
O546       Zr549   2.400       .  S
O546       Zr565   2.385       .  S
Zr547       O572   2.440       .  S
Zr547       O566   2.435       .  S
Zr547       O574   2.435       .  S
Zr547       O562   2.436       .  S
Zr547       O553   2.401       .  S
Zr547       O554   2.406       .  S
Zr547       O555   2.374       .  S
Zr547       O556   2.380       .  S
Zr548       O567   2.437       .  S
Zr548       O560   2.434       .  S
Zr548       O561   2.449       .  S
Zr548       O554   2.390       .  S
Zr548       O555   2.391       .  S
Zr549       O551   2.434       .  S
Zr549       O573   2.436       .  S
Zr549       O575   2.467       .  S
Zr549       O553   2.384       .  S
Zr549       O556   2.390       .  S
Zr550       O576   2.436       .  S
Zr550       O577   2.438       .  S
Zr550       O552   2.438       .  S
Zr550       O553   2.396       .  S
Zr550       O554   2.399       .  S
O551        H588   0.990       .  S
O552        H583   0.990       .  S
O552        H597   0.990       .  S
O554        H580   0.965       .  S
O555       Zr565   2.386       .  S
O556       Zr565   2.386       .  S
O556        H581   0.967       .  S
C557       C1539   1.501       .  S
C558       C1021   1.468       .  S
C559       C1007   1.489       .  S
O560        H596   0.990       .  S
O561        C563   1.284       .  A
O562        C563   1.285       .  A
C563       C1343   1.491       .  S
O564       Zr565   2.436       .  S
O564        H593   0.990       .  S
Zr565       O568   2.434       .  S
Zr565       O569   2.438       .  S
Zr565       O570   2.388       .  S
O566        C571   1.286       .  A
O567        H584   0.990       .  S
O567        H599   0.990       .  S
O568        H585   0.990       .  S
O569        H589   0.990       .  S
O569        H598   0.990       .  S
O570        C571   1.273       .  A
C571       C1032   1.474       .  S
O572        H591   0.990       .  S
O572        H595   0.990       .  S
O573        H587   0.990       .  S
O573        H594   0.990       .  S
O574        C578   1.284       .  A
O575        C578   1.291       .  A
O576        H586   0.991       .  S
O577        H590   0.990       .  S
C578       C1368   1.495       .  S
Zr601       O602   2.442       .  S
Zr601       O603   2.446       .  S
Zr601       O604   2.449       .  S
Zr601       O607   2.428       .  S
Zr601       O609   2.375       .  S
Zr601       O610   2.379       .  S
Zr601       O611   2.409       .  S
Zr601       O612   2.405       .  S
O602        H658   0.990       .  S
O602        H666   0.990       .  S
O603        C623   1.287       .  A
O604        C625   1.287       .  A
O605       Zr615   2.427       .  S
O605        C624   1.281       .  A
O606       Zr614   2.463       .  S
O606        C625   1.289       .  A
O607        C624   1.285       .  A
O608       Zr616   2.396       .  S
O608        C623   1.275       .  A
O609       Zr614   2.397       .  S
O609       Zr616   2.387       .  S
O610       Zr615   2.391       .  S
O610       Zr616   2.381       .  S
O610        H645   0.968       .  S
O611       Zr614   2.398       .  S
O611       Zr631   2.395       .  S
O611        H648   0.963       .  S
O612       Zr615   2.391       .  S
O612       Zr631   2.399       .  S
Zr613       O638   2.439   1_554  S
Zr613       O632   2.433   1_554  S
Zr613       O640   2.461   1_554  S
Zr613       O628   2.435   1_554  S
Zr613       O619   2.398       .  S
Zr613       O620   2.413       .  S
Zr613       O621   2.390       .  S
Zr613       O622   2.387       .  S
Zr614       O633   2.436       .  S
Zr614       O626   2.436       .  S
Zr614       O627   2.433       .  S
Zr614       O620   2.412       .  S
Zr614       O621   2.402       .  S
Zr615       O617   2.438       .  S
Zr615       O639   2.432       .  S
Zr615       O641   2.420       .  S
Zr615       O619   2.394       .  S
Zr615       O622   2.397       .  S
Zr616       O642   2.434       .  S
Zr616       O643   2.434       .  S
Zr616       O618   2.436       .  S
Zr616       O619   2.381       .  S
Zr616       O620   2.386       .  S
O617        H654   0.990       .  S
O618        H649   0.990       .  S
O618        H663   0.990       .  S
O620        H646   0.964       .  S
O621       Zr631   2.373       .  S
O622       Zr631   2.378       .  S
O622        H647   0.965       .  S
C623        C993   1.475       .  S
C624       C1385   1.482       .  S
C625       C1466   1.500       .  S
O626        H662   0.990       .  S
O627        C629   1.286       .  A
O628        C629   1.283   1_556  A
C629        C965   1.472   1_554  S
O630       Zr631   2.441       .  S
O630        H659   0.991       .  S
Zr631       O634   2.439       .  S
Zr631       O635   2.438       .  S
Zr631       O636   2.427       .  S
O632        C637   1.280   1_556  A
O633        H650   0.990       .  S
O633        H665   0.990       .  S
O634        H651   0.990       .  S
O635        H655   0.990       .  S
O635        H664   0.990       .  S
O636        C637   1.285       .  A
C637       C1483   1.485   1_554  S
O638        H657   0.990       .  S
O638        H661   0.990       .  S
O639        H653   0.989       .  S
O639        H660   0.990       .  S
O640        C644   1.289   1_556  A
O641        C644   1.282       .  A
O642        H652   0.989       .  S
O643        H656   0.990       .  S
C644        C979   1.488   1_554  S
Zr667       O668   2.442       .  S
Zr667       O669   2.456       .  S
Zr667       O670   2.431       .  S
Zr667       O673   2.427       .  S
Zr667       O675   2.380       .  S
Zr667       O676   2.384       .  S
Zr667       O677   2.414       .  S
Zr667       O678   2.406       .  S
O668        H724   0.990       .  S
O668        H732   0.990       .  S
O669        C689   1.287       .  A
O670        C691   1.285       .  A
O671       Zr681   2.439       .  S
O671        C690   1.288       .  A
O672       Zr680   2.420       .  S
O672        C691   1.281       .  A
O673        C690   1.282       .  A
O674       Zr682   2.434       .  S
O674        C689   1.284       .  A
O675       Zr680   2.398       .  S
O675       Zr682   2.375       .  S
O676       Zr681   2.405       .  S
O676       Zr682   2.374       .  S
O676        H711   0.967       .  S
O677       Zr680   2.410       .  S
O677       Zr697   2.380       .  S
O677        H714   0.963       .  S
O678       Zr681   2.395       .  S
O678       Zr697   2.389       .  S
Zr679       O704   2.435       .  S
Zr679       O698   2.422       .  S
Zr679       O706   2.430       .  S
Zr679       O694   2.438       .  S
Zr679       O685   2.400       .  S
Zr679       O686   2.403       .  S
Zr679       O687   2.377       .  S
Zr679       O688   2.382       .  S
Zr680       O699   2.435       .  S
Zr680       O692   2.436       .  S
Zr680       O693   2.439       .  S
Zr680       O686   2.400       .  S
Zr680       O687   2.396       .  S
Zr681       O683   2.437       .  S
Zr681       O705   2.437       .  S
Zr681       O707   2.461       .  S
Zr681       O685   2.392       .  S
Zr681       O688   2.391       .  S
Zr682       O708   2.438       .  S
Zr682       O709   2.435       .  S
Zr682       O684   2.434       .  S
Zr682       O685   2.396       .  S
Zr682       O686   2.400       .  S
O683        H720   0.990       .  S
O684        H715   0.989       .  S
O684        H729   0.990       .  S
O686        H712   0.965       .  S
O687       Zr697   2.382       .  S
O688       Zr697   2.376       .  S
O688        H713   0.966       .  S
C689       C1550   1.496       .  S
C690        C920   1.478       .  S
C691        C948   1.465       .  S
O692        H728   0.990       .  S
O693        C695   1.283       .  A
O694        C695   1.285       .  A
C695       C1396   1.488       .  S
O696       Zr697   2.436       .  S
O696        H725   0.990       .  S
Zr697       O700   2.436       .  S
Zr697       O701   2.437       .  S
Zr697       O702   2.402       .  S
O698        C703   1.280       .  A
O699        H716   0.991       .  S
O699        H731   0.989       .  S
O700        H717   0.989       .  S
O701        H721   0.990       .  S
O701        H730   0.990       .  S
O702        C703   1.280       .  A
C703        C934   1.479       .  S
O704        H723   0.990       .  S
O704        H727   0.990       .  S
O705        H719   0.990       .  S
O705        H726   0.990       .  S
O706        C710   1.283       .  A
O707        C710   1.290       .  A
O708        H718   0.990       .  S
O709        H722   0.990       .  S
C710       C1424   1.492       .  S
O733       Zr745   2.416       .  S
O733        C735   1.282       .  A
O734       Zr771   2.444       .  S
O734        C735   1.292       .  A
C735        C990   1.476       .  S
O736       Zr748   2.397       .  S
O736        C738   1.279       .  A
O737       Zr772   2.451   1_455  S
O737        C738   1.293       .  A
C738       C1091   1.471       .  S
O739       Zr748   2.410       .  S
O739        C741   1.280       .  A
O740       Zr771   2.416   1_455  S
O740        C741   1.288       .  A
C741       C1242   1.474       .  S
O742       Zr745   2.411       .  S
O742        C744   1.285       .  A
O743       Zr772   2.431       .  S
O743        C744   1.286       .  A
C744        C937   1.484       .  S
Zr745       O746   2.435       .  S
Zr745       O747   2.434       .  S
Zr745       O751   2.363       .  S
Zr745       O752   2.366       .  S
Zr745       O775   2.360   1_545  S
Zr745       O777   2.364   1_545  S
O746        H789   0.990       .  S
O747        H788   0.990       .  S
O747        H792   0.990       .  S
Zr748       O749   2.435       .  S
Zr748       O750   2.433       .  S
Zr748       O752   2.362   1_455  S
Zr748       O751   2.359   1_455  S
Zr748       O776   2.354       .  S
Zr748       O778   2.368       .  S
O749        H790   0.990       .  S
O749        H793   0.990       .  S
O750        H783   0.990       .  S
O751       Zr771   2.369       .  S
O752       Zr772   2.382       .  S
O752        H779   0.962       .  S
O753       Zr765   2.401       .  S
O753        C755   1.280       .  A
O754       Zr772   2.431   1_565  S
O754        C755   1.290       .  A
C755       C1035   1.472       .  S
O756       Zr768   2.410       .  S
O756        C758   1.282       .  A
O757       Zr771   2.441   1_465  S
O757        C758   1.292       .  A
C758       C1200   1.476       .  S
O759       Zr768   2.433       .  S
O759        C761   1.289       .  A
O760       Zr772   2.423   1_465  S
O760        C761   1.285       .  A
C761       C1144   1.480       .  S
O762       Zr765   2.424       .  S
O762        C764   1.284       .  A
O763       Zr771   2.409   1_565  S
O763        C764   1.284       .  A
C764       C1074   1.459       .  S
Zr765       O766   2.437       .  S
Zr765       O767   2.435       .  S
Zr765       O773   2.367   1_655  S
Zr765       O774   2.359   1_655  S
Zr765       O777   2.358       .  S
Zr765       O775   2.378       .  S
O766        H786   0.990       .  S
O766        H791   0.990       .  S
O767        H787   0.990       .  S
Zr768       O769   2.435       .  S
Zr768       O770   2.434       .  S
Zr768       O774   2.370       .  S
Zr768       O773   2.358       .  S
Zr768       O778   2.359   1_565  S
Zr768       O776   2.374   1_565  S
O769        H785   0.990       .  S
O770        H784   0.990       .  S
O770        H794   0.990       .  S
Zr771       O774   2.381   1_645  S
Zr771       O776   2.380   1_655  S
Zr771       O777   2.380   1_545  S
Zr772       O773   2.389   1_645  S
Zr772       O775   2.388   1_545  S
Zr772       O778   2.379   1_655  S
O773        H781   0.967       .  S
O776        H780   0.966       .  S
O777        H782   0.993       .  S
O795       Zr807   2.415       .  S
O795        C797   1.282       .  A
O796       Zr833   2.444       .  S
O796        C797   1.290       .  A
C797       C1189   1.460       .  S
O798       Zr810   2.415       .  S
O798        C800   1.284       .  A
O799       Zr834   2.450   1_545  S
O799        C800   1.290       .  A
C800        C962   1.472       .  S
O801       Zr810   2.438       .  S
O801        C803   1.286       .  A
O802       Zr833   2.409   1_545  S
O802        C803   1.283       .  A
C803       C1228   1.454       .  S
O804       Zr807   2.440       .  S
O804        C806   1.286       .  A
O805       Zr834   2.436       .  S
O805        C806   1.289       .  A
C806       C1063   1.475       .  S
Zr807       O808   2.438       .  S
Zr807       O809   2.434       .  S
Zr807       O813   2.381       .  S
Zr807       O814   2.365       .  S
Zr807       O837   2.358       .  S
Zr807       O839   2.372       .  S
O808        H851   0.990       .  S
O809        H850   0.990       .  S
O809        H854   0.990       .  S
Zr810       O811   2.434       .  S
Zr810       O812   2.435       .  S
Zr810       O814   2.372   1_545  S
Zr810       O813   2.363   1_545  S
Zr810       O838   2.359       .  S
Zr810       O840   2.372       .  S
O811        H852   0.990       .  S
O811        H855   0.990       .  S
O812        H845   0.990       .  S
O813       Zr833   2.398       .  S
O814       Zr834   2.393       .  S
O814        H841   0.964       .  S
O815       Zr827   2.392       .  S
O815        C817   1.279       .  A
O816       Zr834   2.445       .  S
O816        C817   1.290       .  A
C817       C1004   1.465       .  S
O818       Zr830   2.403       .  S
O818        C820   1.280       .  A
O819       Zr833   2.459   1_545  S
O819        C820   1.294       .  A
C820       C1105   1.472       .  S
O821       Zr830   2.416       .  S
O821        C823   1.284       .  A
O822       Zr834   2.441   1_545  S
O822        C823   1.288       .  A
C823        C923   1.468       .  S
O824       Zr827   2.430       .  S
O824        C826   1.286       .  A
O825       Zr833   2.431       .  S
O825        C826   1.285       .  A
C826       C1161   1.467       .  S
Zr827       O828   2.433       .  S
Zr827       O829   2.435       .  S
Zr827       O835   2.366   1_565  S
Zr827       O836   2.351   1_565  S
Zr827       O839   2.353       .  S
Zr827       O837   2.377       .  S
O828        H848   0.989       .  S
O828        H853   0.990       .  S
O829        H849   0.990       .  S
Zr830       O831   2.433       .  S
Zr830       O832   2.435       .  S
Zr830       O836   2.376       .  S
Zr830       O835   2.360       .  S
Zr830       O840   2.357       .  S
Zr830       O838   2.358       .  S
O831        H847   0.990       .  S
O832        H846   0.990       .  S
O832        H856   0.990       .  S
Zr833       O836   2.380   1_565  S
Zr833       O838   2.388   1_565  S
Zr833       O839   2.392       .  S
Zr834       O835   2.392   1_565  S
Zr834       O837   2.387       .  S
Zr834       O840   2.390   1_565  S
O835        H843   0.963       .  S
O838        H842   0.966       .  S
O839        H844   0.965       .  S
O857       Zr869   2.416       .  S
O857        C859   1.284       .  A
O858       Zr895   2.459   1_455  S
O858        C859   1.292       .  A
C859       C1217   1.476       .  S
O860       Zr872   2.416       .  S
O860        C862   1.284       .  A
O861       Zr896   2.452       .  S
O861        C862   1.291       .  A
C862       C1049   1.474       .  S
O863       Zr872   2.425       .  S
O863        C865   1.285       .  A
O864       Zr895   2.421       .  S
O864        C865   1.285       .  A
C865        C976   1.457       .  S
O866       Zr869   2.427       .  S
O866        C868   1.284       .  A
O867       Zr896   2.434   1_455  S
O867        C868   1.289       .  A
C868       C1175   1.469       .  S
Zr869       O870   2.436       .  S
Zr869       O871   2.435       .  S
Zr869       O875   2.369       .  S
Zr869       O876   2.369   1_455  S
Zr869       O899   2.361       .  S
Zr869       O901   2.372       .  S
O870        H913   0.990       .  S
O871        H912   0.990       .  S
O871        H916   0.990       .  S
Zr872       O873   2.434       .  S
Zr872       O874   2.435       .  S
Zr872       O876   2.370       .  S
Zr872       O875   2.364   1_655  S
Zr872       O900   2.355       .  S
Zr872       O902   2.367       .  S
O873        H914   0.990       .  S
O873        H917   0.990       .  S
O874        H907   0.990       .  S
O875       Zr895   2.392   1_455  S
O876       Zr896   2.395       .  S
O876        H903   0.965   1_655  S
O877       Zr889   2.415       .  S
O877        C879   1.284       .  A
O878       Zr896   2.453   1_455  S
O878        C879   1.291       .  A
C879       C1133   1.470       .  S
O880       Zr892   2.400       .  S
O880        C882   1.279       .  A
O881       Zr895   2.455       .  S
O881        C882   1.293       .  A
C882        C951   1.463       .  S
O883       Zr892   2.421       .  S
O883        C885   1.283       .  A
O884       Zr896   2.433       .  S
O884        C885   1.289       .  A
C885       C1018   1.469       .  S
O886       Zr889   2.429       .  S
O886        C888   1.286       .  A
O887       Zr895   2.443   1_455  S
O887        C888   1.289       .  A
C888       C1119   1.470       .  S
Zr889       O890   2.433       .  S
Zr889       O891   2.436       .  S
Zr889       O897   2.368   1_455  S
Zr889       O898   2.366   1_455  S
Zr889       O901   2.363       .  S
Zr889       O899   2.365       .  S
O890        H910   0.990       .  S
O890        H915   0.990       .  S
O891        H911   0.990       .  S
Zr892       O893   2.437       .  S
Zr892       O894   2.428       .  S
Zr892       O898   2.373       .  S
Zr892       O897   2.361       .  S
Zr892       O902   2.357       .  S
Zr892       O900   2.361       .  S
O893        H909   0.990       .  S
O894        H908   0.990       .  S
O894        H918   0.990       .  S
Zr895       O898   2.386       .  S
Zr895       O900   2.388       .  S
Zr895       O901   2.393   1_655  S
Zr896       O897   2.390       .  S
Zr896       O899   2.384   1_655  S
Zr896       O902   2.382       .  S
O897        H905   0.964       .  S
O900        H904   0.965       .  S
O901        H906   0.966       .  S
C919        C920   1.402       .  A
C919        C924   1.398       .  A
C919        H926   1.084       .  S
C920        C921   1.414       .  A
C921        C922   1.397       .  A
C921        N928   1.427       .  S
C922        C923   1.399       .  A
C922        H927   1.085       .  S
C923        C924   1.408       .  A
C924        N925   1.424       .  S
N925        O929   1.260       .  A
N925        O930   1.262       .  A
N928        O932   1.262       .  A
N928        O931   1.262       .  A
C933        C934   1.405       .  A
C933        C938   1.396       .  A
C933        H940   1.084       .  S
C934        C935   1.412       .  A
C935        C936   1.389       .  A
C935        N942   1.428       .  S
C936        C937   1.407       .  A
C936        H941   1.084       .  S
C937        C938   1.413       .  A
C938        N939   1.426       .  S
N939        O943   1.261       .  A
N939        O944   1.262       .  A
N942        O946   1.262       .  A
N942        O945   1.262       .  A
C947        C948   1.393       .  A
C947        C952   1.390       .  A
C947        H954   1.085       .  S
C948        C949   1.412       .  A
C949        C950   1.396       .  A
C949        N956   1.426       .  S
C950        C951   1.396       .  A
C950        H955   1.083       .  S
C951        C952   1.417       .  A
C952        N953   1.427       .  S
N953        O957   1.261       .  A
N953        O958   1.262       .  A
N956        O960   1.262       .  A
N956        O959   1.262       .  A
C961        C962   1.403       .  A
C961        C966   1.398       .  A
C961        H968   1.085       .  S
C962        C963   1.409       .  A
C963        C964   1.398       .  A
C963        N970   1.426       .  S
C964        C965   1.400       .  A
C964        H969   1.085       .  S
C965        C966   1.411       .  A
C966        N967   1.428       .  S
N967        O971   1.262       .  A
N967        O972   1.262       .  A
N970        O974   1.262       .  A
N970        O973   1.262       .  A
C975        C976   1.382       .  A
C975        C980   1.390       .  A
C975        H982   1.078       .  S
C976        C977   1.398       .  A
C977        C978   1.404       .  A
C977        N984   1.421       .  S
C978        C979   1.410       .  A
C978        H983   1.084       .  S
C979        C980   1.422       .  A
C980        N981   1.425   1_556  S
N981        O985   1.262       .  A
N981        O986   1.262       .  A
N984        O988   1.262       .  A
N984        O987   1.262       .  A
C989        C990   1.400       .  A
C989        C994   1.398       .  A
C989        H996   1.084       .  S
C990        C991   1.416       .  A
C991        C992   1.393       .  A
C991        N998   1.427       .  S
C992        C993   1.397       .  A
C992        H997   1.085       .  S
C993        C994   1.416       .  A
C994        N995   1.427       .  S
N995        O999   1.262       .  A
N995       O1000   1.262       .  A
N998       O1002   1.262       .  A
N998       O1001   1.262       .  A
C1003      C1004   1.400       .  A
C1003      C1008   1.408       .  A
C1003      H1010   1.084       .  S
C1004      C1005   1.408       .  A
C1005      C1006   1.379       .  A
C1005      N1012   1.428       .  S
C1006      C1007   1.402       .  A
C1006      H1011   1.084       .  S
C1007      C1008   1.422       .  A
C1008      N1009   1.426       .  S
N1009      O1013   1.262       .  A
N1009      O1014   1.262       .  A
N1012      O1016   1.261       .  A
N1012      O1015   1.261       .  A
C1017      C1018   1.398       .  A
C1017      C1022   1.398       .  A
C1017      H1024   1.080       .  S
C1018      C1019   1.412       .  A
C1019      C1020   1.393       .  A
C1019      N1026   1.427       .  S
C1020      C1021   1.397       .  A
C1020      H1025   1.085       .  S
C1021      C1022   1.411       .  A
C1022      N1023   1.427       .  S
N1023      O1027   1.262       .  A
N1023      O1028   1.262       .  A
N1026      O1030   1.261       .  A
N1026      O1029   1.262       .  A
C1031      C1032   1.398       .  A
C1031      C1036   1.388       .  A
C1031      H1038   1.084       .  S
C1032      C1033   1.417       .  A
C1033      C1034   1.394       .  A
C1033      N1040   1.427       .  S
C1034      C1035   1.399       .  A
C1034      H1039   1.084       .  S
C1035      C1036   1.416       .  A
C1036      N1037   1.428       .  S
N1037      O1041   1.262       .  A
N1037      O1042   1.262       .  A
N1040      O1044   1.262       .  A
N1040      O1043   1.262       .  A
C1045      C1046   1.401       .  A
C1045      C1050   1.397       .  A
C1045      H1052   1.085       .  S
C1046      C1047   1.411       .  A
C1047      C1048   1.401       .  A
C1047      N1054   1.428       .  S
C1048      C1049   1.405       .  A
C1048      H1053   1.085       .  S
C1049      C1050   1.408       .  A
C1050      N1051   1.426       .  S
N1051      O1055   1.262       .  A
N1051      O1056   1.262       .  A
N1054      O1058   1.262       .  A
N1054      O1057   1.262       .  A
C1059      C1060   1.403       .  A
C1059      C1064   1.401       .  A
C1059      H1066   1.084       .  S
C1060      C1061   1.418       .  A
C1061      C1062   1.400       .  A
C1061      N1068   1.427   1_556  S
C1062      C1063   1.397       .  A
C1062      H1067   1.083       .  S
C1063      C1064   1.411       .  A
C1064      N1065   1.427       .  S
N1065      O1069   1.262       .  A
N1065      O1070   1.262       .  A
N1068      O1072   1.262       .  A
N1068      O1071   1.262   1_554  A
C1073      C1074   1.394       .  A
C1073      C1078   1.393       .  A
C1073      H1080   1.084       .  S
C1074      C1075   1.404       .  A
C1075      C1076   1.402       .  A
C1075      N1082   1.430       .  S
C1076      C1077   1.408       .  A
C1076      H1081   1.084       .  S
C1077      C1078   1.412       .  A
C1078      N1079   1.427       .  S
N1079      O1083   1.262       .  A
N1079      O1084   1.262       .  A
N1082      O1086   1.262       .  A
N1082      O1085   1.262       .  A
C1087      C1088   1.397       .  A
C1087      C1092   1.391       .  A
C1087      H1094   1.085       .  S
C1088      C1089   1.414       .  A
C1089      C1090   1.398       .  A
C1089      N1096   1.428       .  S
C1090      C1091   1.397       .  A
C1090      H1095   1.079       .  S
C1091      C1092   1.414       .  A
C1092      N1093   1.427       .  S
N1093      O1097   1.262       .  A
N1093      O1098   1.262       .  A
N1096      O1100   1.262       .  A
N1096      O1099   1.262       .  A
C1101      C1102   1.395       .  A
C1101      C1106   1.394       .  A
C1101      H1108   1.085       .  S
C1102      C1103   1.415       .  A
C1103      C1104   1.401       .  A
C1103      N1110   1.426       .  S
C1104      C1105   1.398       .  A
C1104      H1109   1.083       .  S
C1105      C1106   1.417       .  A
C1106      N1107   1.428       .  S
N1107      O1111   1.261       .  A
N1107      O1112   1.261       .  A
N1110      O1114   1.262       .  A
N1110      O1113   1.262       .  A
C1115      C1116   1.403       .  A
C1115      C1120   1.400       .  A
C1115      H1122   1.084       .  S
C1116      C1117   1.412       .  A
C1117      C1118   1.397       .  A
C1117      N1124   1.427       .  S
C1118      C1119   1.400       .  A
C1118      H1123   1.085       .  S
C1119      C1120   1.410       .  A
C1120      N1121   1.427       .  S
N1121      O1125   1.262       .  A
N1121      O1126   1.262       .  A
N1124      O1128   1.262       .  A
N1124      O1127   1.262       .  A
C1129      C1130   1.401       .  A
C1129      C1134   1.400       .  A
C1129      H1136   1.084       .  S
C1130      C1131   1.411       .  A
C1131      C1132   1.397       .  A
C1131      N1138   1.423       .  S
C1132      C1133   1.399       .  A
C1132      H1137   1.085       .  S
C1133      C1134   1.409       .  A
C1134      N1135   1.424       .  S
N1135      O1139   1.262       .  A
N1135      O1140   1.262       .  A
N1138      O1142   1.262       .  A
N1138      O1141   1.260       .  A
C1143      C1144   1.403       .  A
C1143      C1148   1.394       .  A
C1143      H1150   1.084       .  S
C1144      C1145   1.414       .  A
C1145      C1146   1.399       .  A
C1145      N1152   1.428       .  S
C1146      C1147   1.404       .  A
C1146      H1151   1.084       .  S
C1147      C1148   1.413       .  A
C1148      N1149   1.428       .  S
N1149      O1153   1.262       .  A
N1149      O1154   1.262       .  A
N1152      O1156   1.262       .  A
N1152      O1155   1.262       .  A
C1157      C1158   1.401       .  A
C1157      C1162   1.400       .  A
C1157      H1164   1.084       .  S
C1158      C1159   1.411       .  A
C1159      C1160   1.395       .  A
C1159      N1166   1.424       .  S
C1160      C1161   1.398       .  A
C1160      H1165   1.085       .  S
C1161      C1162   1.409       .  A
C1162      N1163   1.426       .  S
N1163      O1167   1.262       .  A
N1163      O1168   1.262       .  A
N1166      O1170   1.261       .  A
N1166      O1169   1.262       .  A
C1171      C1172   1.399       .  A
C1171      C1176   1.395       .  A
C1171      H1178   1.085       .  S
C1172      C1173   1.415       .  A
C1173      C1174   1.399       .  A
C1173      N1180   1.427   1_556  S
C1174      C1175   1.398       .  A
C1174      H1179   1.084       .  S
C1175      C1176   1.412       .  A
C1176      N1177   1.427       .  S
N1177      O1181   1.262       .  A
N1177      O1182   1.262       .  A
N1180      O1184   1.262       .  A
N1180      O1183   1.262   1_554  A
C1185      C1186   1.402       .  A
C1185      C1190   1.397       .  A
C1185      H1192   1.084       .  S
C1186      C1187   1.417       .  A
C1187      C1188   1.395       .  A
C1187      N1194   1.426   1_556  S
C1188      C1189   1.394       .  A
C1188      H1193   1.085       .  S
C1189      C1190   1.410       .  A
C1190      N1191   1.427       .  S
N1191      O1195   1.261       .  A
N1191      O1196   1.262       .  A
N1194      O1198   1.262       .  A
N1194      O1197   1.262       .  A
C1199      C1200   1.399       .  A
C1199      C1204   1.394       .  A
C1199      H1206   1.084       .  S
C1200      C1201   1.418       .  A
C1201      C1202   1.393       .  A
C1201      N1208   1.428       .  S
C1202      C1203   1.397       .  A
C1202      H1207   1.085       .  S
C1203      C1204   1.415       .  A
C1204      N1205   1.427       .  S
N1205      O1209   1.262       .  A
N1205      O1210   1.262       .  A
N1208      O1212   1.262       .  A
N1208      O1211   1.262       .  A
C1213      C1214   1.399       .  A
C1213      C1218   1.399       .  A
C1213      H1220   1.085       .  S
C1214      C1215   1.411       .  A
C1215      C1216   1.400       .  A
C1215      N1222   1.428       .  S
C1216      C1217   1.404       .  A
C1216      H1221   1.085       .  S
C1217      C1218   1.409       .  A
C1218      N1219   1.423       .  S
N1219      O1223   1.262       .  A
N1219      O1224   1.261       .  A
N1222      O1226   1.262       .  A
N1222      O1225   1.262       .  A
C1227      C1228   1.391       .  A
C1227      C1232   1.393       .  A
C1227      H1234   1.085       .  S
C1228      C1229   1.406       .  A
C1229      C1230   1.392       .  A
C1229      N1236   1.422       .  S
C1230      C1231   1.398       .  A
C1230      H1235   1.084       .  S
C1231      C1232   1.418       .  A
C1232      N1233   1.427   1_556  S
N1233      O1237   1.262       .  A
N1233      O1238   1.262       .  A
N1236      O1240   1.262       .  A
N1236      O1239   1.261       .  A
C1241      C1242   1.400       .  A
C1241      C1246   1.392       .  A
C1241      H1248   1.084       .  S
C1242      C1243   1.417       .  A
C1243      C1244   1.390       .  A
C1243      N1250   1.428       .  S
C1244      C1245   1.397       .  A
C1244      H1249   1.085       .  S
C1245      C1246   1.415       .  A
C1246      N1247   1.428       .  S
N1247      O1251   1.262       .  A
N1247      O1252   1.262       .  A
N1250      O1254   1.262       .  A
N1250      O1253   1.262       .  A
C1255      C1256   1.398       .  A
C1255      C1260   1.399       .  A
C1255      H1262   1.084       .  S
C1256      C1257   1.411       .  A
C1257      C1258   1.399       .  A
C1257      N1264   1.427       .  S
C1258      C1259   1.404       .  A
C1258      H1263   1.084       .  S
C1259      C1260   1.419       .  A
C1260      N1261   1.427       .  S
N1261      O1265   1.262       .  A
N1261      O1266   1.262       .  A
N1264      O1268   1.262       .  A
N1264      O1267   1.262       .  A
C1269      C1270   1.403       .  A
C1269      C1274   1.391       .  A
C1269      H1276   1.083       .  S
C1270      C1271   1.419       .  A
C1271      C1272   1.400       .  A
C1271      N1278   1.426       .  S
C1272      C1273   1.398       .  A
C1272      H1277   1.084       .  S
C1273      C1274   1.407       .  A
C1274      N1275   1.425       .  S
N1275      O1279   1.262       .  A
N1275      O1280   1.260       .  A
N1278      O1282   1.262       .  A
N1278      O1281   1.262       .  A
C1283      C1284   1.404       .  A
C1283      C1288   1.396       .  A
C1283      H1290   1.083       .  S
C1284      C1285   1.421       .  A
C1285      C1286   1.403       .  A
C1285      N1292   1.426       .  S
C1286      C1287   1.399       .  A
C1286      H1291   1.084       .  S
C1287      C1288   1.409       .  A
C1288      N1289   1.424       .  S
N1289      O1293   1.260       .  A
N1289      O1294   1.262       .  A
N1292      O1296   1.262       .  A
N1292      O1295   1.262       .  A
C1297      C1298   1.397       .  A
C1297      C1302   1.397       .  A
C1297      H1304   1.084       .  S
C1298      C1299   1.414       .  A
C1299      C1300   1.402       .  A
C1299      N1306   1.427       .  S
C1300      C1301   1.403       .  A
C1300      H1305   1.084       .  S
C1301      C1302   1.421       .  A
C1302      N1303   1.427       .  S
N1303      O1307   1.262       .  A
N1303      O1308   1.262       .  A
N1306      O1310   1.262       .  A
N1306      O1309   1.262       .  A
C1311      C1312   1.394       .  A
C1311      C1316   1.400       .  A
C1311      H1318   1.084       .  S
C1312      C1313   1.404       .  A
C1313      C1314   1.403       .  A
C1313      N1320   1.430       .  S
C1314      C1315   1.412       .  A
C1314      H1319   1.084       .  S
C1315      C1316   1.419       .  A
C1316      N1317   1.426       .  S
N1317      O1321   1.262       .  A
N1317      O1322   1.262       .  A
N1320      O1324   1.262       .  A
N1320      O1323   1.262       .  A
C1325      C1326   1.413       .  A
C1325      C1330   1.409       .  A
C1325      H1332   1.083       .  S
C1326      C1327   1.420       .  A
C1327      C1328   1.392       .  A
C1327      N1334   1.426       .  S
C1328      C1329   1.389       .  A
C1328      H1333   1.085       .  S
C1329      C1330   1.403       .  A
C1330      N1331   1.429       .  S
N1331      O1335   1.262       .  A
N1331      O1336   1.262       .  A
N1334      O1338   1.262       .  A
N1334      O1337   1.262       .  A
C1339      C1340   1.401       .  A
C1339      C1344   1.405       .  A
C1339      H1346   1.084       .  S
C1340      C1341   1.409       .  A
C1341      C1342   1.394       .  A
C1341      N1348   1.427       .  S
C1342      C1343   1.405       .  A
C1342      H1347   1.084       .  S
C1343      C1344   1.418       .  A
C1344      N1345   1.426       .  S
N1345      O1349   1.262       .  A
N1345      O1350   1.262       .  A
N1348      O1352   1.262       .  A
N1348      O1351   1.262       .  A
C1353      C1354   1.403       .  A
C1353      C1358   1.402       .  A
C1353      H1360   1.084       .  S
C1354      C1355   1.418       .  A
C1355      C1356   1.397       .  A
C1355      N1362   1.427       .  S
C1356      C1357   1.398       .  A
C1356      H1361   1.085       .  S
C1357      C1358   1.413       .  A
C1358      N1359   1.426       .  S
N1359      O1363   1.262       .  A
N1359      O1364   1.262       .  A
N1362      O1366   1.262       .  A
N1362      O1365   1.262       .  A
C1367      C1368   1.414       .  A
C1367      C1372   1.411       .  A
C1367      H1374   1.083       .  S
C1368      C1369   1.422       .  A
C1369      C1370   1.393       .  A
C1369      N1376   1.426       .  S
C1370      C1371   1.389       .  A
C1370      H1375   1.085       .  S
C1371      C1372   1.402       .  A
C1372      N1373   1.429       .  S
N1373      O1377   1.262       .  A
N1373      O1378   1.262       .  A
N1376      O1380   1.262       .  A
N1376      O1379   1.262       .  A
C1381      C1382   1.398       .  A
C1381      C1386   1.397       .  A
C1381      H1388   1.084       .  S
C1382      C1383   1.409       .  A
C1383      C1384   1.393       .  A
C1383      N1390   1.427       .  S
C1384      C1385   1.404       .  A
C1384      H1389   1.084       .  S
C1385      C1386   1.417       .  A
C1386      N1387   1.426       .  S
N1387      O1391   1.262       .  A
N1387      O1392   1.262       .  A
N1390      O1394   1.261       .  A
N1390      O1393   1.262       .  A
C1395      C1396   1.403       .  A
C1395      C1400   1.394       .  A
C1395      H1402   1.084       .  S
C1396      C1397   1.417       .  A
C1397      C1398   1.404       .  A
C1397      N1404   1.426       .  S
C1398      C1399   1.400       .  A
C1398      H1403   1.084       .  S
C1399      C1400   1.409       .  A
C1400      N1401   1.427       .  S
N1401      O1405   1.261       .  A
N1401      O1406   1.262       .  A
N1404      O1408   1.262       .  A
N1404      O1407   1.262       .  A
C1409      C1410   1.390       .  A
C1409      C1414   1.393       .  A
C1409      H1416   1.084       .  S
C1410      C1411   1.403       .  A
C1411      C1412   1.409       .  A
C1411      N1418   1.429       .  S
C1412      C1413   1.411       .  A
C1412      H1417   1.083       .  S
C1413      C1414   1.419       .  A
C1414      N1415   1.427       .  S
N1415      O1419   1.262       .  A
N1415      O1420   1.261       .  A
N1418      O1422   1.262       .  A
N1418      O1421   1.262       .  A
C1423      C1424   1.414       .  A
C1423      C1428   1.411       .  A
C1423      H1430   1.083       .  S
C1424      C1425   1.420       .  A
C1425      C1426   1.392       .  A
C1425      N1432   1.426       .  S
C1426      C1427   1.389       .  A
C1426      H1431   1.085       .  S
C1427      C1428   1.402       .  A
C1428      N1429   1.429       .  S
N1429      O1433   1.262       .  A
N1429      O1434   1.262       .  A
N1432      O1436   1.262       .  A
N1432      O1435   1.262       .  A
C1437      C1438   1.399       .  A
C1437      C1442   1.400       .  A
C1437      H1444   1.084       .  S
C1438      C1439   1.410       .  A
C1439      C1440   1.396       .  A
C1439      N1446   1.427       .  S
C1440      C1441   1.404       .  A
C1440      H1445   1.084       .  S
C1441      C1442   1.419       .  A
C1442      N1443   1.427       .  S
N1443      O1447   1.262       .  A
N1443      O1448   1.262       .  A
N1446      O1450   1.262       .  A
N1446      O1449   1.262       .  A
C1451      C1452   1.396       .  A
C1451      C1456   1.393       .  A
C1451      H1458   1.085       .  S
C1452      C1453   1.412       .  A
C1453      C1454   1.403       .  A
C1453      N1460   1.426       .  S
C1454      C1455   1.401       .  A
C1454      H1459   1.084       .  S
C1455      C1456   1.416       .  A
C1456      N1457   1.428       .  S
N1457      O1461   1.262       .  A
N1457      O1462   1.261       .  A
N1460      O1464   1.262       .  A
N1460      O1463   1.262       .  A
C1465      C1466   1.416       .  A
C1465      C1470   1.405       .  A
C1465      H1472   1.083       .  S
C1466      C1467   1.421       .  A
C1467      C1468   1.399       .  A
C1467      N1474   1.425       .  S
C1468      C1469   1.393       .  A
C1468      H1473   1.084       .  S
C1469      C1470   1.404       .  A
C1470      N1471   1.431       .  S
N1471      O1475   1.262       .  A
N1471      O1476   1.262       .  A
N1474      O1478   1.262       .  A
N1474      O1477   1.262       .  A
C1479      C1480   1.400       .  A
C1479      C1484   1.403       .  A
C1479      H1486   1.084       .  S
C1480      C1481   1.411       .  A
C1481      C1482   1.392       .  A
C1481      N1488   1.427       .  S
C1482      C1483   1.401       .  A
C1482      H1487   1.084   1_556  S
C1483      C1484   1.419       .  A
C1484      N1485   1.427       .  S
N1485      O1489   1.262       .  A
N1485      O1490   1.262       .  A
N1488      O1492   1.262   1_556  A
N1488      O1491   1.262       .  A
C1493      C1494   1.392       .  A
C1493      C1498   1.402       .  A
C1493      H1500   1.084       .  S
C1494      C1495   1.403       .  A
C1495      C1496   1.398   1_556  A
C1495      N1502   1.430   1_556  S
C1496      C1497   1.413   1_554  A
C1496      H1501   1.084       .  S
C1497      C1498   1.423       .  A
C1498      N1499   1.426       .  S
N1499      O1503   1.262       .  A
N1499      O1504   1.262       .  A
N1502      O1506   1.262       .  A
N1502      O1505   1.261       .  A
C1507      C1508   1.389       .  A
C1507      C1512   1.390   1_556  A
C1507      H1514   1.084   1_556  S
C1508      C1509   1.399       .  A
C1509      C1510   1.410       .  A
C1509      N1516   1.429       .  S
C1510      C1511   1.417       .  A
C1510      H1515   1.083       .  S
C1511      C1512   1.422   1_556  A
C1512      N1513   1.427       .  S
N1513      O1517   1.262       .  A
N1513      O1518   1.262       .  A
N1516      O1520   1.262       .  A
N1516      O1519   1.262       .  A
C1521      C1522   1.406       .  A
C1521      C1526   1.402       .  A
C1521      H1528   1.084       .  S
C1522      C1523   1.415   1_556  A
C1523      C1524   1.393   1_554  A
C1523      N1530   1.427       .  S
C1524      C1525   1.397       .  A
C1524      H1529   1.084       .  S
C1525      C1526   1.410       .  A
C1526      N1527   1.425       .  S
N1527      O1531   1.262       .  A
N1527      O1532   1.261       .  A
N1530      O1534   1.262       .  A
N1530      O1533   1.262       .  A
C1535      C1536   1.392       .  A
C1535      C1540   1.404       .  A
C1535      H1542   1.084       .  S
C1536      C1537   1.403       .  A
C1537      C1538   1.395       .  A
C1537      N1544   1.430       .  S
C1538      C1539   1.412       .  A
C1538      H1543   1.083       .  S
C1539      C1540   1.425       .  A
C1540      N1541   1.425       .  S
N1541      O1545   1.262       .  A
N1541      O1546   1.262       .  A
N1544      O1548   1.260       .  A
N1544      O1547   1.262       .  A
C1549      C1550   1.416       .  A
C1549      C1554   1.413       .  A
C1549      H1556   1.083       .  S
C1550      C1551   1.419       .  A
C1551      C1552   1.391       .  A
C1551      N1558   1.427       .  S
C1552      C1553   1.390       .  A
C1552      H1557   1.079       .  S
C1553      C1554   1.403       .  A
C1554      N1555   1.429       .  S
N1555      O1559   1.262       .  A
N1555      O1560   1.262       .  A
N1558      O1562   1.262       .  A
N1558      O1561   1.262       .  A
C1563      C1564   1.396       .  A
C1563      C1568   1.391       .  A
C1563      H1570   1.085       .  S
C1564      C1565   1.412       .  A
C1565      C1566   1.401       .  A
C1565      N1572   1.426       .  S
C1566      C1567   1.402       .  A
C1566      H1571   1.084       .  S
C1567      C1568   1.417       .  A
C1568      N1569   1.428       .  S
N1569      O1573   1.262       .  A
N1569      O1574   1.262       .  A
N1572      O1576   1.262       .  A
N1572      O1575   1.260       .  A
C1577      C1578   1.404       .  A
C1577      C1582   1.391       .  A
C1577      H1584   1.083       .  S
C1578      C1579   1.423       .  A
C1579      C1580   1.404       .  A
C1579      N1586   1.422       .  S
C1580      C1581   1.394       .  A
C1580      H1585   1.084       .  S
C1581      C1582   1.407       .  A
C1582      N1583   1.427       .  S
N1583      O1587   1.262       .  A
N1583      O1588   1.262       .  A
N1586      O1590   1.259       .  A
N1586      O1589   1.260       .  A
