geometry optimzed in LAMMPS
_audit_creation_date              2020-11-30 
_audit_creation_method            'lammps2cif' 
_symmetry_space_group_name_H-M    'P1' 
_symmetry_Int_Tables_number       1 
_symmetry_cell_setting            triclinic 
loop_ 
_symmetry_equiv_pos_as_xyz 
  x,y,z 
_cell_length_a                    26.91389893 
_cell_length_b                    27.966871819274875 
_cell_length_c                    27.826081485390716 
_cell_angle_alpha                 87.58211574952178 
_cell_angle_beta                  90.00329331371243 
_cell_angle_gamma                 89.41053020618692 
loop_ 
_atom_site_label 
_atom_site_type_symbol 
_atom_site_fract_x 
_atom_site_fract_y 
_atom_site_fract_z 
_atom_site_charge 
O1          O  0.32927381  0.66091492  0.73563157    -0.79600
O2          O  0.33017917  0.81262989  0.75529206    -0.79600
O3          O  0.29081053  0.70683312  0.64286535    -0.79700
O4          O  0.28605546  0.76765559  0.84746503    -0.79600
O5          O  0.34545033  0.74762895  0.68439132    -0.79700
O6          O  0.34248424  0.72514185  0.80865447    -0.79600
O7          O  0.26378169  0.83965424  0.78889856    -0.77200
O8          O  0.26542151  0.63327813  0.69924010    -0.79700
C9          C  0.31152332  0.63126733  0.70779709     1.10100
C10         C  0.30896812  0.84446238  0.77840611     1.10000
C11         C  0.33599165  0.71955536  0.65096691     1.10100
C12         C  0.33132049  0.75416090  0.84128307     1.10000
O13         O  0.25505816  0.69014837  0.85034107    -0.79600
O14         O  0.25838941  0.78445665  0.63784487    -0.79700
O15         O  0.17487468  0.67945654  0.73180171    -0.79600
O16         O  0.17575297  0.79833665  0.75466297    -0.79600
O17         O  0.23210597  0.83821441  0.71049790    -0.79700
O18         O  0.22882971  0.63719229  0.77735923    -0.79600
O19         O  0.18705059  0.72420447  0.82608192    -0.79600
O20         O  0.18990414  0.75340011  0.66209389    -0.79700
Co21       Co  0.28836249  0.68225069  0.78837940     1.51500
Co22       Co  0.29081656  0.79143271  0.70147595     1.51700
Co23       Co  0.23041095  0.69730857  0.68845603     1.51600
Co24       Co  0.22862825  0.77795182  0.79951156     1.51500
O25         O  0.25914246  0.73724597  0.74453507    -1.41600
C26         C  0.20940195  0.69602743  0.85560053     1.10000
C27         C  0.21203262  0.78312279  0.63438966     1.10100
C28         C  0.18368516  0.64662510  0.76361030     1.10000
C29         C  0.18691728  0.83233061  0.72499889     1.10000
O30         O  0.77941059  0.34297265  0.68482665    -0.79600
O31         O  0.73184107  0.33562156  0.80928008    -0.79600
O32         O  0.65832682  0.24806961  0.69005141    -0.79700
O33         O  0.86466949  0.25784478  0.79025621    -0.79600
O34         O  0.66634166  0.31333543  0.73046953    -0.79700
O35         O  0.84279705  0.32332389  0.75424675    -0.79600
O36         O  0.78633257  0.28534279  0.84643362    -0.79600
O37         O  0.72708597  0.29711328  0.65081051    -0.79700
C38         C  0.74484974  0.33874170  0.65550740     1.10100
C39         C  0.76654166  0.32752092  0.83995485     1.10000
C40         C  0.64102881  0.28779740  0.70266733     1.10100
C41         C  0.86839171  0.30221038  0.78597808     1.10000
O42         O  0.85829836  0.22189677  0.71445151    -0.79600
O43         O  0.65961572  0.21903259  0.77261030    -0.79700
O44         O  0.72967329  0.20154944  0.63330936    -0.79600
O45         O  0.74662626  0.18898663  0.82682482    -0.79600
O46         O  0.70408743  0.24595304  0.85522952    -0.79700
O47         O  0.79828288  0.24433034  0.64464533    -0.79600
O48         O  0.81392523  0.17545992  0.76364764    -0.79600
O49         O  0.71235890  0.17324456  0.73275119    -0.79700
Co50       Co  0.81535571  0.28336540  0.70392870     1.51500
Co51       Co  0.69505839  0.27930081  0.78841400     1.51700
Co52       Co  0.72971894  0.23278887  0.69295557     1.51600
Co53       Co  0.79952331  0.22865289  0.80374271     1.51500
O54         O  0.75773139  0.26080263  0.75041434    -1.41600
C55         C  0.84516036  0.18012390  0.73051568     1.10000
C56         C  0.67503355  0.17748209  0.76135080     1.10100
C57         C  0.77247648  0.21586245  0.61927582     1.10000
C58         C  0.71826615  0.20267637  0.85853828     1.10000
O59         O  0.69925618  0.75615901  0.17725353    -0.79600
O60         O  0.81675597  0.77741669  0.18021591    -0.79600
O61         O  0.69445237  0.85520462  0.26243802    -0.79700
O62         O  0.79034139  0.66416358  0.21447323    -0.79600
O63         O  0.73645444  0.84167448  0.19751181    -0.79700
O64         O  0.71453799  0.66004635  0.17872845    -0.79600
O65         O  0.85704677  0.73124225  0.23185861    -0.79600
O66         O  0.64447562  0.78135205  0.23055782    -0.79700
C67         C  0.65791646  0.77617358  0.18658746     1.10100
C68         C  0.85032754  0.74597217  0.18888167     1.10000
C69         C  0.70223592  0.86455100  0.21835394     1.10100
C70         C  0.76078762  0.64957971  0.18007445     1.10000
O71         O  0.72557166  0.64687203  0.27083539    -0.79600
O72         O  0.77521981  0.85203999  0.29409011    -0.79700
O73         O  0.66554513  0.72551880  0.32048549    -0.79600
O74         O  0.83022234  0.74549987  0.32971391    -0.79600
O75         O  0.85439118  0.80085059  0.27698997    -0.79700
O76         O  0.65208276  0.69840534  0.24887544    -0.79600
O77         O  0.76460845  0.67540098  0.32876936    -0.79600
O78         O  0.73123370  0.80669262  0.34630693    -0.79700
Co79       Co  0.72097701  0.70625803  0.22391813     1.51500
Co80       Co  0.79232359  0.81375542  0.23709016     1.51700
Co81       Co  0.68795413  0.78861535  0.29048846     1.51600
Co82       Co  0.80565666  0.70639492  0.27707823     1.51500
O83         O  0.75033101  0.75659434  0.26243361    -1.41600
C84         C  0.73647428  0.64421239  0.31467286     1.10000
C85         C  0.76224999  0.84082057  0.33741197     1.10100
C86         C  0.64287027  0.69678832  0.29356346     1.10000
C87         C  0.85614912  0.78207396  0.31944750     1.10000
C88         C  0.52564271  0.98587256  0.02673430     0.02800
C89         C  0.53766295  0.01895079  0.98589509     0.02800
C90         C  0.50745060  0.01869724  0.94207541     0.02800
C91         C  0.45949750  0.99140269  0.94384783     0.02800
C92         C  0.45430357  0.95211406  0.98098800     0.02800
C93         C  0.49239205  0.94586571  0.01825507     0.02800
N94         N  0.54554774  0.99356637  0.07628365    -0.03000
C95         C  0.54068891  0.95816790  0.11103806    -0.00400
C96         C  0.49801346  0.96773496  0.13710534    -0.23300
C97         C  0.48844114  0.01556864  0.12935497    -0.23500
C98         C  0.52734787  0.03196927  0.10083420    -0.00500
H99         H  0.48427738  0.94709456  0.16798968     0.13300
H100        H  0.46773891  0.03616447  0.15478865     0.13400
N101        N  0.58178231  0.05122002  0.98726388    -0.03000
C102        C  0.60873453  0.05382713  0.02841052    -0.00400
C103        C  0.64344045  0.01684215  0.02884156    -0.23300
C104        C  0.65037363  0.00722764  0.98170843    -0.23500
C105        C  0.62114816  0.04183935  0.95787163    -0.00500
H106        H  0.67233222  0.01043670  0.05551072     0.13300
H107        H  0.68415646  0.99062722  0.96956128     0.13400
N108        N  0.41594914  0.00501467  0.91192428    -0.03000
C109        C  0.39518413  0.05029416  0.91246467    -0.00400
C110        C  0.38870126  0.06881697  0.86574893    -0.23300
C111        C  0.39989578  0.03484951  0.83554365    -0.23500
C112        C  0.41370853  0.99506389  0.86352880    -0.00500
H113        H  0.37289120  0.10258785  0.85362390     0.13300
H114        H  0.39142477  0.03673674  0.79737192     0.13400
N115        N  0.52715888  0.04565952  0.89792649    -0.03000
C116        C  0.49731937  0.05970631  0.86051402    -0.00400
C117        C  0.50470736  0.02804547  0.82353810    -0.23300
C118        C  0.54556919  0.00111455  0.83541969    -0.23500
C119        C  0.56611954  0.02723167  0.87113012    -0.00500
H120        H  0.48708658  0.02856638  0.78863727     0.13300
H121        H  0.56519187  0.98076472  0.80910359     0.13400
N122        N  0.50070323  0.89852728  0.04460149    -0.03000
C123        C  0.54319358  0.87380495  0.03291179    -0.00400
C124        C  0.53128365  0.84324418  0.99716755    -0.23300
C125        C  0.48329802  0.83202618  0.00709811    -0.23500
C126        C  0.46697237  0.86244610  0.04225056    -0.00500
H127        H  0.55599865  0.81807827  0.98056338     0.13300
H128        H  0.46834226  0.79822749  0.99755397     0.13400
N129        N  0.41028332  0.91983149  0.98277429    -0.03000
C130        C  0.36584455  0.93606633  0.00183586    -0.00400
C131        C  0.33134870  0.93857881  0.96519740    -0.23300
C132        C  0.34822759  0.90822840  0.93186662    -0.23500
C133        C  0.39648406  0.89581197  0.94277710    -0.00500
H134        H  0.29182077  0.94438408  0.97040883     0.13300
H135        H  0.32402568  0.88874021  0.90879590     0.13400
C136        C  0.02973233  0.50385046  0.96267976     0.02800
C137        C  0.98864777  0.46918152  0.96646759     0.02800
C138        C  0.94560598  0.47886611  0.99822241     0.02800
C139        C  0.94833947  0.51627070  0.03399861     0.02800
C140        C  0.99198979  0.54810923  0.03445787     0.02800
C141        C  0.03500500  0.53838389  0.00169924     0.02800
N142        N  0.08487690  0.56095751  0.00923339    -0.03000
C143        C  0.12166420  0.55034359  0.97811010    -0.00400
C144        C  0.15109172  0.51341603  0.99757363    -0.23300
C145        C  0.14009347  0.51083446  0.04521169    -0.23500
C146        C  0.11166061  0.55182860  0.05099190    -0.00500
H147        H  0.18513388  0.49927755  0.98288486     0.13300
H148        H  0.16555211  0.49417432  0.07106951     0.13400
N149        N  0.06530510  0.50492270  0.91966846    -0.03000
C150        C  0.04742141  0.52095931  0.87434181    -0.00400
C151        C  0.03564071  0.48103921  0.85014862    -0.23300
C152        C  0.07048365  0.44860378  0.86706140    -0.23500
C153        C  0.09011204  0.46330744  0.90890376    -0.00500
H154        H  0.02249626  0.48139125  0.81330181     0.13300
H155        H  0.08850975  0.42293412  0.84458725     0.13400
N156        N  0.98982885  0.59217873  0.06462713    -0.03000
C157        C  0.95618803  0.62785155  0.05025133    -0.00400
C158        C  0.97843025  0.65461677  0.01358345    -0.23300
C159        C  0.02648662  0.65473485  0.02848932    -0.23500
C160        C  0.03058330  0.62082304  0.06668107    -0.00500
H161        H  0.96261152  0.68493919  0.99342998     0.13300
H162        H  0.04828197  0.68670479  0.02292984     0.13400
N163        N  0.91110266  0.51615839  0.07441990    -0.03000
C164        C  0.88315616  0.55571024  0.08715488    -0.00400
C165        C  0.89211073  0.56320241  0.13502420    -0.23300
C166        C  0.92465940  0.52926584  0.15245526    -0.23500
C167        C  0.92547676  0.49507025  0.11849852    -0.00500
H168        H  0.87225561  0.58745353  0.15754104     0.13300
H169        H  0.93111822  0.52307701  0.19070381     0.13400
N170        N  0.99292375  0.42184664  0.94248448    -0.03000
C171        C  0.95468253  0.39079161  0.94787402    -0.00400
C172        C  0.96148096  0.36333110  0.98983119    -0.23300
C173        C  0.01082945  0.36592022  0.99956112    -0.23500
C174        C  0.02886593  0.38940929  0.95835810    -0.00500
H175        H  0.93842070  0.33412302  0.00269903     0.13300
H176        H  0.02939689  0.33865191  0.02181696     0.13400
N177        N  0.89824500  0.45175952  0.99219070    -0.03000
C178        C  0.87015243  0.43724661  0.03110775    -0.00400
C179        C  0.82534780  0.46187345  0.02688109    -0.23300
C180        C  0.82441679  0.48805927  0.98443847    -0.23500
C181        C  0.86295287  0.46877672  0.95896549    -0.00500
H182        H  0.79191717  0.45171200  0.04585402     0.13300
H183        H  0.78979403  0.50167986  0.96903757     0.13400
C184        C  0.50438262  0.43510656  0.52415079     0.02800
C185        C  0.55001112  0.43580286  0.49274788     0.02800
C186        C  0.55019010  0.47249936  0.45264069     0.02800
C187        C  0.50889917  0.50806263  0.44801399     0.02800
C188        C  0.48018032  0.51737514  0.49134445     0.02800
C189        C  0.47507100  0.47981992  0.52854947     0.02800
N190        N  0.48474474  0.39037083  0.54827941    -0.03000
C191        C  0.51312348  0.35058001  0.55490278    -0.00400
C192        C  0.49874938  0.31688988  0.52233131    -0.23300
C193        C  0.45528438  0.33355607  0.50253026    -0.23500
C194        C  0.44154754  0.36921127  0.53309378    -0.00500
H195        H  0.51297257  0.28078680  0.51950714     0.13300
H196        H  0.43074648  0.31041356  0.48364795     0.13400
N197        N  0.44924510  0.56611323  0.49516230    -0.03000
C198        C  0.40730912  0.56543690  0.45905597    -0.00400
C199        C  0.41301304  0.58045090  0.50001027    -0.23300
C200        C  0.45544571  0.60510201  0.49173073    -0.23500
C201        C  0.46422354  0.59990327  0.53548999    -0.00500
H202        H  0.37732698  0.59251127  0.51875454     0.13300
H203        H  0.45996373  0.64298526  0.47863299     0.13400
N204        N  0.59165305  0.47379412  0.41712630    -0.03000
C205        C  0.63702211  0.49249175  0.43002230    -0.00400
C206        C  0.67129233  0.45544344  0.43325755    -0.23300
C207        C  0.65245895  0.42061758  0.40601857    -0.23500
C208        C  0.60389661  0.43243336  0.39500805    -0.00500
H209        H  0.71101628  0.46020233  0.43685609     0.13300
H210        H  0.67540361  0.39586159  0.38670866     0.13400
N211        N  0.49587764  0.53390937  0.40069856    -0.03000
C212        C  0.45291310  0.52222422  0.37575610    -0.00400
C213        C  0.46543611  0.48815826  0.34349005    -0.23300
C214        C  0.51341681  0.49842154  0.33211914    -0.23500
C215        C  0.52963848  0.53150244  0.36458039    -0.00500
H216        H  0.44039717  0.47297423  0.31786092     0.13300
H217        H  0.52894362  0.49001523  0.29780283     0.13400
N218        N  0.44119492  0.48887292  0.57064306    -0.03000
C219        C  0.45863062  0.52066183  0.60279207    -0.00400
C220        C  0.49015819  0.49502250  0.63334968    -0.23300
C221        C  0.46700971  0.45219930  0.63824976    -0.23500
C222        C  0.42970160  0.45306366  0.60371578    -0.00500
H223        H  0.51545422  0.50774117  0.65977713     0.13300
H224        H  0.46871317  0.43023021  0.67124648     0.13400
N225        N  0.59457767  0.40153342  0.50066304    -0.03000
C226        C  0.62310724  0.40017698  0.54273137    -0.00400
C227        C  0.63007683  0.35352202  0.56031327    -0.23300
C228        C  0.61008276  0.32432860  0.52950639    -0.23500
C229        C  0.59322842  0.35268574  0.49095466    -0.00500
H230        H  0.65164172  0.34061080  0.59078996     0.13300
H231        H  0.61580284  0.28578937  0.53111923     0.13400
C232        C  0.03558417  0.97734773  0.51574960     0.02800
C233        C  0.02741415  0.00815351  0.55757411     0.02800
C234        C  0.98827322  0.04614727  0.55472896     0.02800
C235        C  0.95537891  0.04782415  0.51079980     0.02800
C236        C  0.95096080  0.00449424  0.48207289     0.02800
C237        C  0.99270611  0.97009643  0.48327527     0.02800
N238        N  0.98420400  0.08231443  0.59439530    -0.03000
C239        C  0.00870777  0.12616744  0.59134536    -0.00400
C240        C  0.97599029  0.16296090  0.60122317    -0.23300
C241        C  0.93553339  0.14263269  0.62077255    -0.23500
C242        C  0.94064409  0.09332782  0.61908009    -0.00500
H243        H  0.98439715  0.20067634  0.60374502     0.13300
H244        H  0.90618693  0.16321882  0.63632358     0.13400
N245        N  0.05575630  0.99712211  0.60345660    -0.03000
C246        C  0.05970404  0.03004124  0.63827351    -0.00400
C247        C  0.02261979  0.02081660  0.67117858    -0.23300
C248        C  0.00582914  0.97581455  0.66433305    -0.23500
C249        C  0.03894258  0.95864164  0.63117768    -0.00500
H250        H  0.02047253  0.03759784  0.70492302     0.13300
H251        H  0.98806825  0.95498495  0.69302787     0.13400
N252        N  0.08538598  0.95213255  0.50782219    -0.03000
C253        C  0.11989823  0.95367322  0.54337447    -0.00400
C254        C  0.14869476  0.99389268  0.53439357    -0.23300
C255        C  0.14505732  0.00324712  0.48578068    -0.23500
C256        C  0.11593142  0.96658828  0.46953529    -0.00500
H257        H  0.17893889  0.00592282  0.55625973     0.13300
H258        H  0.17375782  0.02203534  0.46561019     0.13400
N259        N  0.93100603  0.09301212  0.49105023    -0.03000
C260        C  0.94776842  0.11214453  0.44772616    -0.00400
C261        C  0.98553327  0.14363853  0.45741753    -0.23300
C262        C  0.96916062  0.16306203  0.49852812    -0.23500
C263        C  0.93071789  0.13393044  0.51552064    -0.00500
H264        H  0.00730358  0.16419053  0.43135972     0.13300
H265        H  0.97789895  0.19886052  0.50891211     0.13400
N266        N  0.90467537  0.99458563  0.45255583    -0.03000
C267        C  0.86858524  0.02921931  0.44449383    -0.00400
C268        C  0.83435575  0.02424001  0.48174115    -0.23300
C269        C  0.84079766  0.97963526  0.50214836    -0.23500
C270        C  0.87346665  0.95910769  0.47077470    -0.00500
H271        H  0.80033935  0.04451783  0.48601866     0.13300
H272        H  0.81138567  0.96178233  0.52218168     0.13400
N273        N  0.98973610  0.92660234  0.45372992    -0.03000
C274        C  0.02905152  0.89585767  0.45387469    -0.00400
C275        C  0.02278351  0.86324026  0.49292599    -0.23300
C276        C  0.97360449  0.86488253  0.50397991    -0.23500
C277        C  0.95458930  0.89303489  0.46612017    -0.00500
H278        H  0.04487702  0.83182620  0.50241440     0.13300
H279        H  0.95562938  0.83551423  0.52325995     0.13400
O280        O  0.23681205  0.16832872  0.70755902    -0.79600
O281        O  0.24900089  0.32774193  0.69335723    -0.79600
O282        O  0.14521572  0.21179274  0.75736482    -0.79700
O283        O  0.34882884  0.28341477  0.73288904    -0.79600
O284        O  0.17674860  0.25409520  0.69600133    -0.79700
O285        O  0.30552146  0.23680386  0.68599301    -0.79600
O286        O  0.29104405  0.35531533  0.75237374    -0.79600
O287        O  0.20799609  0.14044788  0.77485716    -0.79700
C288        C  0.21226162  0.13679402  0.72979620     1.10100
C289        C  0.27836480  0.35878399  0.70852840     1.10000
C290        C  0.14680469  0.22236595  0.71224316     1.10100
C291        C  0.33746664  0.26917248  0.69102158     1.10000
O292        O  0.36001201  0.20677378  0.76812561    -0.79600
O293        O  0.14159321  0.28985618  0.78557759    -0.79700
O294        O  0.25021351  0.19233468  0.85528455    -0.79600
O295        O  0.26444592  0.31813242  0.84592274    -0.79600
O296        O  0.21329904  0.35292302  0.79157930    -0.79700
O297        O  0.29032210  0.14828440  0.80413538    -0.79600
O298        O  0.34301860  0.24338120  0.83339429    -0.79600
O299        O  0.18224854  0.25739679  0.84530847    -0.79700
Co300      Co  0.29342890  0.19423104  0.74247986     1.51500
Co301      Co  0.20007080  0.30157831  0.74191734     1.51700
Co302      Co  0.20059235  0.20464736  0.80677482     1.51600
Co303      Co  0.30687846  0.29495126  0.79182645     1.51500
O304        O  0.25049195  0.24929392  0.77036636    -1.41600
C305        C  0.37218992  0.21646552  0.81013667     1.10000
C306        C  0.14462499  0.27898008  0.83007066     1.10100
C307        C  0.27850593  0.15805565  0.84772809     1.10000
C308        C  0.23160548  0.35033383  0.83440801     1.10000
O309        O  0.73835235  0.13642364  0.27702098    -0.79600
O310        O  0.75104596  0.34889758  0.19133548    -0.79600
O311        O  0.82934988  0.23527442  0.16535327    -0.79700
O312        O  0.81968142  0.24893076  0.29185208    -0.79600
O313        O  0.77033469  0.28354766  0.13204463    -0.79700
O314        O  0.76576867  0.20270485  0.32490615    -0.79600
O315        O  0.81215348  0.31826534  0.23311869    -0.79600
O316        O  0.80966533  0.15620946  0.24288848    -0.79700
C317        C  0.78496397  0.12852613  0.27220080     1.10100
C318        C  0.79635172  0.35004034  0.20446931     1.10000
C319        C  0.81569896  0.26942776  0.13520819     1.10100
C320        C  0.80985855  0.21705763  0.32190402     1.10000
O321        O  0.66658621  0.19709092  0.32983886    -0.79600
O322        O  0.67346237  0.23882957  0.14419347    -0.79700
O323        O  0.71561441  0.14299757  0.19273362    -0.79600
O324        O  0.70840358  0.33844617  0.26525293    -0.79600
O325        O  0.65559967  0.30270952  0.21898027    -0.79700
O326        O  0.65730515  0.18560581  0.22893161    -0.79600
O327        O  0.70946534  0.26562015  0.32395958    -0.79600
O328        O  0.74258984  0.20544013  0.12201337    -0.79700
Co329      Co  0.70938735  0.20336203  0.27501013     1.51500
Co330      Co  0.71265153  0.28938795  0.17525481     1.51700
Co331      Co  0.77473737  0.18837208  0.18465050     1.51600
Co332      Co  0.76296353  0.28901860  0.27508659     1.51500
O333        O  0.74378964  0.24134201  0.22409997    -1.41600
C334        C  0.67637597  0.23865577  0.34499512     1.10000
C335        C  0.69666236  0.21225476  0.11582904     1.10100
C336        C  0.66946263  0.15117099  0.20236553     1.10000
C337        C  0.66411131  0.33233098  0.25116178     1.10000
O338        O  0.28896533  0.67079402  0.25410540    -0.79600
O339        O  0.16318484  0.68487379  0.26117400    -0.79600
O340        O  0.28367650  0.74521365  0.36147158    -0.79700
O341        O  0.20292407  0.73410880  0.16104265    -0.79600
O342        O  0.23932280  0.68662770  0.33579141    -0.79700
O343        O  0.27374108  0.68869975  0.15681208    -0.79600
O344        O  0.13353804  0.74720290  0.22038411    -0.79600
O345        O  0.34294442  0.71748162  0.28889274    -0.79700
C346        C  0.32904950  0.67518405  0.27825370     1.10100
C347        C  0.13338421  0.70261126  0.22875223     1.10000
C348        C  0.27194093  0.70155046  0.36402784     1.10100
C349        C  0.22860094  0.69758590  0.14485445     1.10000
O350        O  0.27390030  0.78208044  0.15720369    -0.79600
O351        O  0.20646690  0.78583164  0.35558190    -0.79700
O352        O  0.33305006  0.81315025  0.24102596    -0.79600
O353        O  0.16193166  0.83814638  0.25875060    -0.79600
O354        O  0.13201804  0.77516344  0.29630474    -0.79700
O355        O  0.34320578  0.74508030  0.20570047    -0.79600
O356        O  0.23848212  0.84069022  0.19059992    -0.79600
O357        O  0.26088050  0.83588538  0.31888902    -0.79700
Co358      Co  0.27178543  0.72669110  0.20912483     1.51500
Co359      Co  0.18968188  0.73302474  0.30916957     1.51700
Co360      Co  0.30151445  0.77907354  0.29928174     1.51600
Co361      Co  0.18986467  0.79084220  0.21076317     1.51500
O362        O  0.23970945  0.76133698  0.26056064    -1.41600
C363        C  0.26585125  0.82656391  0.15800647     1.10000
C364        C  0.22558410  0.82809638  0.34942352     1.10100
C365        C  0.35619429  0.78817814  0.21029191     1.10000
C366        C  0.13171298  0.81986506  0.28976342     1.10000
C367        C  0.04989613  0.87899356  0.40686198    -0.04900
C368        C  0.06955611  0.91134664  0.37122327    -0.32400
C369        C  0.09454639  0.89457455  0.33006214     0.36900
C370        C  0.09687280  0.84512296  0.32272444    -0.05300
C371        C  0.06815093  0.81494730  0.35342121    -0.32300
C372        C  0.04698788  0.83047550  0.39540090     0.36800
H373        H  0.06832431  0.94941244  0.37689406     0.17100
O374        O  0.11843113  0.92620617  0.29926126    -0.59800
H375        H  0.06431652  0.77722034  0.34702130     0.17200
O376        O  0.02115880  0.79777480  0.42351130    -0.59900
H377        H  0.04667932  0.77572414  0.43821423     0.44200
H378        H  0.09161424  0.94414440  0.28169279     0.44100
C379        C  0.80880577  0.09284393  0.30805176    -0.04900
C380        C  0.77781368  0.06960104  0.34208485    -0.32400
C381        C  0.79660039  0.04552195  0.38347407     0.36900
C382        C  0.84841959  0.04534813  0.39415172    -0.05300
C383        C  0.87985008  0.06111807  0.35585528    -0.32300
C384        C  0.86053613  0.08475394  0.31336066     0.36800
H385        H  0.73782887  0.07126508  0.33774048     0.17100
O386        O  0.76312587  0.02206632  0.41292126    -0.59800
H387        H  0.91973151  0.05751938  0.36008747     0.17200
O388        O  0.89281862  0.10221882  0.27899938    -0.59900
H389        H  0.89403666  0.07757636  0.25441260     0.44200
H390        H  0.75747524  0.99096094  0.39813725     0.44100
C391        C  0.91125402  0.13831480  0.41333608    -0.04900
C392        C  0.92909687  0.16136846  0.37048458    -0.32400
C393        C  0.89769232  0.19016701  0.34092812     0.36900
C394        C  0.84760363  0.19593321  0.35379833    -0.05300
C395        C  0.83035032  0.17553205  0.39635065    -0.32300
C396        C  0.86031293  0.14608804  0.42519019     0.36800
H397        H  0.96719825  0.15607160  0.35927111     0.17100
O398        O  0.91523960  0.20904774  0.29802620    -0.59800
H399        H  0.79152927  0.17981717  0.40599899     0.17200
O400        O  0.83732604  0.12002355  0.46104010    -0.59900
H401        H  0.80682987  0.13704860  0.47132383     0.44200
H402        H  0.92731448  0.24130901  0.30527744     0.44100
C403        C  0.14792119  0.93115927  0.43972670    -0.04900
C404        C  0.17725206  0.94800789  0.39983489    -0.32400
C405        C  0.20564975  0.91644884  0.37105184     0.36900
C406        C  0.20546774  0.86644358  0.38123617    -0.05300
C407        C  0.17980836  0.85051871  0.42206863    -0.32300
C408        C  0.15197579  0.88101811  0.45054955     0.36800
H409        H  0.17659996  0.98575458  0.38951652     0.17100
O410        O  0.23020517  0.93472480  0.33136235    -0.59800
H411        H  0.17911035  0.81252721  0.43150510     0.17200
O412        O  0.12408198  0.85946647  0.48553837    -0.59900
H413        H  0.14369234  0.83219580  0.50012502     0.44200
H414        H  0.26481808  0.93922929  0.34220635     0.44100
C415        C  0.10873998  0.04671348  0.65927755    -0.04900
C416        C  0.14326584  0.07281603  0.63109731    -0.32400
C417        C  0.18138479  0.09902334  0.65301036     0.36900
C418        C  0.18469491  0.09944672  0.70384851    -0.05300
C419        C  0.15690904  0.06614749  0.73076705    -0.32300
C420        C  0.12014586  0.03932204  0.70928241     0.36800
H421        H  0.13825180  0.07620449  0.59250936     0.17100
O422        O  0.21476843  0.12448004  0.62494618    -0.59800
H423        H  0.16191322  0.06231258  0.76938732     0.17200
O424        O  0.09655228  0.00493888  0.73745987    -0.59900
H425        H  0.08065374  0.02191681  0.76414480     0.44200
H426        H  0.19514698  0.14383664  0.60079574     0.44100
C427        C  0.11364239  0.19564514  0.67989822    -0.04900
C428        C  0.11842239  0.19918295  0.62942954    -0.32400
C429        C  0.08854865  0.17159490  0.59953168     0.36900
C430        C  0.05356529  0.13911281  0.61971483    -0.05300
C431        C  0.04907392  0.13662703  0.67025285    -0.32300
C432        C  0.07793712  0.16397654  0.69985432     0.36800
H433        H  0.14513146  0.22351953  0.61300685     0.17100
O434        O  0.09193342  0.17828718  0.55055246    -0.59800
H435        H  0.01933219  0.11673655  0.68689987     0.17200
O436        O  0.06807689  0.16169796  0.74830320    -0.59900
H437        H  0.08483261  0.13208517  0.76103252     0.44200
H438        H  0.07068095  0.20670562  0.54240352     0.44100
C439        C  0.61204164  0.32789250  0.44805376    -0.04900
C440        C  0.58183639  0.29320373  0.42722545    -0.32400
C441        C  0.60186058  0.25990569  0.39567158     0.36900
C442        C  0.65324865  0.25915699  0.38714433    -0.05300
C443        C  0.68387222  0.28841137  0.41322658    -0.32300
C444        C  0.66422635  0.32161965  0.44339874     0.36800
H445        H  0.54250783  0.29215170  0.43515491     0.17100
O446        O  0.57085244  0.23038931  0.37181715    -0.59800
H447        H  0.72393858  0.28670655  0.40903426     0.17200
O448        O  0.69672559  0.34685564  0.47004585    -0.59900
H449        H  0.71118329  0.32330956  0.49407352     0.44200
H450        H  0.57261691  0.19929917  0.39009053     0.44100
C451        C  0.37758334  0.44562206  0.62424934    -0.04900
C452        C  0.36875187  0.45470050  0.67306739    -0.32400
C453        C  0.33056246  0.43221845  0.69882339     0.36900
C454        C  0.30178413  0.39733904  0.67704271    -0.05300
C455        C  0.30258423  0.39690287  0.62627015    -0.32300
C456        C  0.33884993  0.42346242  0.59960075     0.36800
H457        H  0.39377323  0.47667392  0.69280992     0.17100
O458        O  0.32329985  0.44289304  0.74605341    -0.59800
H459        H  0.27773343  0.37377125  0.60763552     0.17200
O460        O  0.33933833  0.42295829  0.55038620    -0.59900
H461        H  0.31607106  0.44890057  0.53954481     0.44200
H462        H  0.35264564  0.42919892  0.76389411     0.44100
C463        C  0.42032404  0.56014497  0.34779260    -0.04900
C464        C  0.44132203  0.60145507  0.32524149    -0.32400
C465        C  0.41262544  0.63687685  0.30012679     0.36900
C466        C  0.36073941  0.63224832  0.29532020    -0.05300
C467        C  0.34014550  0.58815785  0.31169700    -0.32300
C468        C  0.36937874  0.55229440  0.33688043     0.36800
H469        H  0.47992489  0.60883440  0.32903387     0.17100
O470        O  0.43576087  0.67748179  0.28259710    -0.59800
H471        H  0.30075921  0.58230113  0.30708194     0.17200
O472        O  0.34741679  0.50986593  0.35086488    -0.59900
H473        H  0.34729054  0.50869574  0.38651101     0.44200
H474        H  0.45295148  0.66798897  0.25290449     0.44100
C475        C  0.58741280  0.41913412  0.34571063    -0.04900
C476        C  0.61215084  0.44063902  0.30605447    -0.32400
C477        C  0.63199549  0.41290962  0.26987924     0.36900
C478        C  0.62499735  0.36313275  0.27175061    -0.05300
C479        C  0.58904462  0.34420622  0.30370690    -0.32300
C480        C  0.56843406  0.37320143  0.33923687     0.36800
H481        H  0.62008241  0.47821093  0.30537027     0.17100
O482        O  0.66285697  0.43388022  0.23609478    -0.59800
H483        H  0.57976377  0.30666549  0.30338238     0.17200
O484        O  0.53092615  0.35629320  0.36821362    -0.59900
H485        H  0.50073529  0.37447612  0.35747413     0.44200
H486        H  0.64179485  0.43986158  0.20725364     0.44100
C487        C  0.37236529  0.60177759  0.43392491    -0.04900
C488        C  0.32107416  0.59178149  0.43407571    -0.32400
C489        C  0.28666302  0.62428570  0.41289500     0.36900
C490        C  0.30318602  0.66848832  0.39346812    -0.05300
C491        C  0.35341908  0.67975062  0.39623294    -0.32300
C492        C  0.38826102  0.64631541  0.41313832     0.36800
H493        H  0.30794239  0.55827957  0.45012833     0.17100
O494        O  0.23745462  0.61234208  0.41092512    -0.59800
H495        H  0.36694297  0.71312104  0.38020505     0.17200
O496        O  0.43744629  0.65532626  0.40346019    -0.59900
H497        H  0.44395629  0.68886683  0.41192685     0.44200
H498        H  0.22167665  0.62823309  0.43834703     0.44100
C499        C  0.40816408  0.34610980  0.57223015    -0.04900
C500        C  0.42513331  0.34588767  0.61990381    -0.32400
C501        C  0.40489513  0.31885770  0.65695837     0.36900
C502        C  0.36288958  0.29151893  0.64893031    -0.05300
C503        C  0.34391052  0.29019977  0.60168996    -0.32300
C504        C  0.36629995  0.31711609  0.56335215     0.36800
H505        H  0.45609984  0.36602215  0.62985188     0.17100
O506        O  0.42803377  0.31873259  0.70101309    -0.59800
H507        H  0.31116325  0.26942306  0.59466305     0.17200
O508        O  0.34687340  0.31510553  0.51793637    -0.59900
H509        H  0.31631055  0.33522464  0.51805842     0.44200
H510        H  0.41893673  0.34979198  0.71478373     0.44100
C511        C  0.86778283  0.38590256  0.05229912    -0.04900
C512        C  0.82534813  0.35907319  0.04211717    -0.32400
C513        C  0.82093094  0.31157280  0.05750541     0.36900
C514        C  0.84753430  0.29494277  0.09848339    -0.05300
C515        C  0.89113315  0.31972257  0.10966570    -0.32300
C516        C  0.90354949  0.36318687  0.08346992     0.36800
H517        H  0.79589322  0.37395155  0.01950935     0.17100
O518        O  0.78363419  0.28439175  0.03893769    -0.59800
H519        H  0.91384997  0.30721381  0.13983334     0.17200
O520        O  0.94839156  0.38481709  0.09080169    -0.59900
H521        H  0.97361872  0.35892406  0.09526020     0.44200
H522        H  0.75198549  0.30225528  0.04327391     0.44100
C523        C  0.05271148  0.35374936  0.92386722    -0.04900
C524        C  0.08451326  0.31701277  0.94313092    -0.32400
C525        C  0.10982995  0.28603035  0.91327704     0.36900
C526        C  0.10591904  0.29328305  0.86329481    -0.05300
C527        C  0.06767514  0.32103701  0.84459245    -0.32300
C528        C  0.04146844  0.35159919  0.87342153     0.36800
H529        H  0.09277080  0.31383291  0.98113186     0.17100
O530        O  0.14124273  0.25169544  0.93317930    -0.59800
H531        H  0.06114637  0.32275076  0.80609133     0.17200
O532        O  0.00839798  0.38228244  0.85048507    -0.59900
H533        H  0.01562471  0.38585455  0.81533314     0.44200
H534        H  0.11960922  0.22448008  0.94255350     0.44100
C535        C  0.89613840  0.45432284  0.14133047    -0.04900
C536        C  0.84510578  0.45535960  0.13404528    -0.32400
C537        C  0.81254586  0.42299715  0.15432468     0.36900
C538        C  0.83037854  0.38762977  0.18648518    -0.05300
C539        C  0.88147841  0.38782270  0.19927725    -0.32300
C540        C  0.91420652  0.42172046  0.17752434     0.36800
H541        H  0.83016503  0.48128404  0.11091006     0.17100
O542        O  0.76319606  0.42682516  0.14207918    -0.59800
H543        H  0.89622781  0.36126425  0.22505202     0.17200
O544        O  0.96351773  0.42119614  0.18988025    -0.59900
H545        H  0.96503379  0.43731703  0.22094079     0.44200
H546        H  0.75922040  0.40657195  0.11399025     0.44100
C547        C  0.05189204  0.63755250  0.11402538    -0.04900
C548        C  0.04842845  0.68642786  0.12313448    -0.32400
C549        C  0.06747926  0.70493934  0.16466603     0.36900
C550        C  0.09817578  0.67653777  0.19656941    -0.05300
C551        C  0.09715011  0.62663468  0.19135096    -0.32300
C552        C  0.07135526  0.60699316  0.15194640     0.36800
H553        H  0.02827577  0.71095738  0.09894445     0.17100
O554        O  0.05665828  0.75206621  0.17256318    -0.59800
H555        H  0.11705477  0.60307702  0.21668629     0.17200
O556        O  0.06767800  0.55829171  0.14959340    -0.59900
H557        H  0.04037931  0.54909194  0.17190676     0.44200
H558        H  0.02881562  0.75122062  0.19589886     0.44100
C559        C  0.14493456  0.44943552  0.91539452    -0.04900
C560        C  0.15682755  0.40379986  0.93607260    -0.32400
C561        C  0.19188849  0.37301508  0.91427326     0.36900
C562        C  0.21285876  0.38641162  0.86935790    -0.05300
C563        C  0.20967691  0.43527992  0.85539461    -0.32300
C564        C  0.18015172  0.46722521  0.88171359     0.36800
H565        H  0.13663604  0.39107201  0.96751527     0.17100
O566        O  0.20263687  0.32906014  0.93538034    -0.59800
H567        H  0.23011636  0.44879089  0.82423923     0.17200
O568        O  0.18516123  0.51547729  0.87383123    -0.59900
H569        H  0.21954730  0.52267501  0.88371026     0.44200
H570        H  0.23507577  0.33285338  0.95160145     0.44100
C571        C  0.14360075  0.59101689  0.07321281    -0.04900
C572        C  0.17224468  0.57915300  0.11476648    -0.32400
C573        C  0.20163885  0.61311032  0.13682198     0.36900
C574        C  0.20251985  0.66083470  0.11859215    -0.05300
C575        C  0.17512699  0.67343247  0.07803863    -0.32300
C576        C  0.14829071  0.63901416  0.05387122     0.36800
H577        H  0.17014159  0.54379977  0.13194561     0.17100
O578        O  0.22567014  0.60026304  0.17894855    -0.59800
H579        H  0.17535116  0.71025412  0.06416346     0.17200
O580        O  0.12555808  0.65382817  0.01222278    -0.59900
H581        H  0.14837334  0.67608548  0.99461365     0.44200
H582        H  0.25883714  0.58814220  0.16900445     0.44100
C583        C  0.28677017  0.85887177  0.11892685    -0.04900
C584        C  0.30363992  0.90593659  0.12576808    -0.32400
C585        C  0.33091265  0.93143875  0.08908666     0.36900
C586        C  0.34066099  0.91032509  0.04466081    -0.05300
C587        C  0.31536793  0.86730510  0.03675667    -0.32300
C588        C  0.29171001  0.84077724  0.07304861     0.36800
H589        H  0.29815614  0.92181696  0.16020270     0.17100
O590        O  0.34908499  0.97587042  0.09775204    -0.59800
H591        H  0.31167152  0.85435825  0.00107541     0.17200
O592        O  0.27073905  0.79798290  0.06217608    -0.59900
H593        H  0.29856668  0.77442731  0.06299963     0.44200
H594        H  0.32777972  0.99871664  0.07861154     0.44100
C595        C  0.44034693  0.84284172  0.08698682    -0.04900
C596        C  0.42307287  0.87430462  0.12168553    -0.32400
C597        C  0.40049652  0.85758793  0.16507767     0.36900
C598        C  0.39191953  0.80836578  0.17339132    -0.05300
C599        C  0.41338877  0.77677295  0.14115342    -0.32300
C600        C  0.43838478  0.79311042  0.09970607     0.36800
H601        H  0.42632426  0.91229003  0.11455278     0.17100
O602        O  0.38470623  0.88990932  0.19759708    -0.59800
H603        H  0.41055655  0.73843367  0.14771434     0.17200
O604        O  0.46199718  0.75944233  0.07329838    -0.59900
H605        H  0.49594095  0.75646712  0.08697148     0.44200
H606        H  0.41271630  0.89250095  0.22040632     0.44100
C607        C  0.48047102  0.11139505  0.85008062    -0.04900
C608        C  0.46387034  0.14128825  0.88686066    -0.32400
C609        C  0.43351643  0.18219368  0.87547497     0.36900
C610        C  0.41982608  0.19263417  0.82730375    -0.05300
C611        C  0.44866300  0.17111760  0.79173184    -0.32300
C612        C  0.47808250  0.13077531  0.80239465     0.36800
H613        H  0.47060602  0.13057852  0.92412519     0.17100
O614        O  0.41662596  0.21032679  0.91119132    -0.59800
H615        H  0.44486986  0.18268369  0.75421677     0.17200
O616        O  0.50486750  0.11121011  0.76593663    -0.59900
H617        H  0.48004506  0.10099670  0.74206466     0.44200
H618        H  0.44565049  0.22946905  0.92040542     0.44100
C619        C  0.35437198  0.06598731  0.94498727    -0.04900
C620        C  0.30728249  0.05078580  0.92932413    -0.32400
C621        C  0.28025546  0.08073931  0.89684547     0.36900
C622        C  0.29444165  0.12861162  0.89033972    -0.05300
C623        C  0.32636651  0.14719647  0.92485699    -0.32300
C624        C  0.35569639  0.11532742  0.95403845     0.36800
H625        H  0.29859501  0.01376913  0.92922101     0.17100
O626        O  0.24421326  0.06196157  0.86860669    -0.59800
H627        H  0.33176583  0.18536883  0.92572820     0.17200
O628        O  0.39326152  0.13296374  0.98116393    -0.59900
H629        H  0.38426182  0.12441430  0.01502678     0.44200
H630        H  0.21229679  0.07091926  0.88377117     0.44100
C631        C  0.67215505  0.18323826  0.07969445    -0.04900
C632        C  0.62019536  0.18046255  0.07556711    -0.32400
C633        C  0.59861175  0.14063866  0.05436190     0.36900
C634        C  0.62899108  0.10125404  0.04300660    -0.05300
C635        C  0.68067842  0.10879720  0.04015423    -0.32300
C636        C  0.70166844  0.15032960  0.05525867     0.36800
H637        H  0.59651016  0.20742229  0.09082892     0.17100
O638        O  0.54816360  0.13908563  0.04768221    -0.59800
H639        H  0.70562349  0.08294391  0.02485781     0.17200
O640        O  0.75157759  0.15744013  0.04758667    -0.59900
H641        H  0.76905949  0.13318931  0.06875719     0.44200
H642        H  0.54048762  0.16434482  0.02267431     0.44100
C643        C  0.56237744  0.06337138  0.12900702    -0.04900
C644        C  0.61145560  0.04799901  0.13887883    -0.32400
C645        C  0.64479080  0.07445885  0.16510937     0.36900
C646        C  0.63091304  0.11945231  0.18176193    -0.05300
C647        C  0.58114289  0.13461371  0.17484951    -0.32300
C648        C  0.54692752  0.10681377  0.14930180     0.36800
H649        H  0.62596332  0.01610591  0.12441224     0.17100
O650        O  0.69169826  0.05607474  0.17304816    -0.59800
H651        H  0.56928153  0.16915387  0.18710141     0.17200
O652        O  0.50002840  0.12466519  0.14028882    -0.59900
H653        H  0.48322258  0.12458890  0.17204232     0.44200
H654        H  0.68826678  0.03276215  0.20067393     0.44100
C655        C  0.78556599  0.87103808  0.37467668    -0.04900
C656        C  0.81697512  0.90763282  0.35711771    -0.32400
C657        C  0.84748455  0.93348812  0.38685440     0.36900
C658        C  0.84499707  0.92658547  0.43733469    -0.05300
C659        C  0.81135317  0.89129450  0.45571498    -0.32300
C660        C  0.78250443  0.86329154  0.42492604     0.36800
H661        H  0.82092059  0.91483237  0.31880870     0.17100
O662        O  0.88389208  0.96154985  0.36605941    -0.59800
H663        H  0.80836645  0.88442151  0.49416639     0.17200
O664        O  0.75188012  0.82877593  0.44440974    -0.59900
H665        H  0.77286083  0.79944853  0.44794608     0.44200
H666        H  0.87448507  0.97046708  0.33242555     0.44100
C667        C  0.66667706  0.89691276  0.19162868    -0.04900
C668        C  0.66967477  0.90328370  0.14151824    -0.32400
C669        C  0.62997915  0.92435303  0.11461892     0.36900
C670        C  0.58573113  0.93830997  0.13813289    -0.05300
C671        C  0.58586743  0.93662161  0.18885957    -0.32300
C672        C  0.62532410  0.91647145  0.21530490     0.36800
H673        H  0.70152365  0.88906841  0.12284205     0.17100
O674        O  0.63202026  0.92675380  0.06519397    -0.59800
H675        H  0.55521636  0.95085013  0.20906815     0.17200
O676        O  0.62239453  0.91553206  0.26459044    -0.59900
H677        H  0.59890167  0.88948033  0.27337177     0.44200
H678        H  0.66710139  0.92307340  0.05508535     0.44100
C679        C  0.88219465  0.72325979  0.15196403    -0.04900
C680        C  0.91296805  0.68534534  0.16829505    -0.32400
C681        C  0.93819344  0.65579402  0.13714784     0.36900
C682        C  0.93116780  0.66122158  0.08659421    -0.05300
C683        C  0.90396067  0.70297030  0.07024596    -0.32300
C684        C  0.88107418  0.73436761  0.10232014     0.36800
H685        H  0.91672447  0.67676251  0.20645086     0.17100
O686        O  0.96633066  0.61900597  0.15733633    -0.59800
H687        H  0.89814947  0.71064643  0.03227213     0.17200
O688        O  0.85405555  0.77290413  0.08432126    -0.59900
H689        H  0.87701742  0.80051023  0.08531618     0.44200
H690        H  0.98155523  0.63005913  0.18742493     0.44100
C691        C  0.88662175  0.80522882  0.35666018    -0.04900
C692        C  0.91629314  0.84443169  0.34295692    -0.32400
C693        C  0.93834310  0.87335811  0.37721276     0.36900
C694        C  0.93060309  0.86338976  0.42720069    -0.05300
C695        C  0.90258315  0.82227468  0.44037693    -0.32300
C696        C  0.88199929  0.79300193  0.40600069     0.36800
H697        H  0.92049839  0.85426316  0.30512019     0.17100
O698        O  0.96395757  0.91371700  0.36202940    -0.59800
H699        H  0.89497800  0.81303890  0.47772319     0.17200
O700        O  0.85513695  0.75389549  0.42141577    -0.59900
H701        H  0.88002042  0.72791517  0.42692574     0.44200
H702        H  0.97041349  0.91271275  0.32688744     0.44100
C703        C  0.71526492  0.60553135  0.34708004    -0.04900
C704        C  0.69738682  0.61413067  0.39374969    -0.32400
C705        C  0.67036956  0.57869861  0.42069328     0.36900
C706        C  0.66088112  0.53384355  0.40130126    -0.05300
C707        C  0.68425791  0.52464383  0.35693814    -0.32300
C708        C  0.70908965  0.55978673  0.32950195     0.36800
H709        H  0.70229629  0.64901718  0.40843137     0.17100
O710        O  0.65281284  0.58859709  0.46544240    -0.59800
H711        H  0.68627067  0.48887009  0.34425998     0.17200
O712        O  0.72963461  0.54813693  0.28630968    -0.59900
H713        H  0.70139805  0.54767351  0.26342916     0.44200
H714        H  0.68083510  0.58088105  0.48772029     0.44100
C715        C  0.83145268  0.57166537  0.06927233    -0.04900
C716        C  0.82589743  0.62156710  0.06292275    -0.32400
C717        C  0.79998599  0.64772172  0.09797860     0.36900
C718        C  0.78135241  0.62335402  0.13960611    -0.05300
C719        C  0.77224970  0.57483657  0.13587136    -0.32300
C720        C  0.78954497  0.55265555  0.09483952     0.36800
H721        H  0.84375473  0.63989576  0.03277133     0.17100
O722        O  0.78908094  0.69522369  0.08954424    -0.59800
H723        H  0.74576835  0.55703866  0.15968264     0.17200
O724        O  0.75782581  0.52202371  0.07363295    -0.59900
H725        H  0.73728060  0.54235256  0.05110139     0.44200
H726        H  0.75892346  0.69598805  0.06905122     0.44100
C727        C  0.62601666  0.79522118  0.14645594    -0.04900
C728        C  0.64486731  0.79865508  0.09926525    -0.32400
C729        C  0.61854828  0.82342212  0.06214933     0.36900
C730        C  0.57270487  0.84640956  0.07192498    -0.05300
C731        C  0.55337398  0.84039174  0.11885726    -0.32300
C732        C  0.57852109  0.81429532  0.15521606     0.36800
H733        H  0.68123798  0.78402440  0.09136437     0.17100
O734        O  0.64004918  0.82869891  0.01754703    -0.59800
H735        H  0.52003307  0.85859226  0.12912634     0.17200
O736        O  0.55715288  0.81009862  0.19993805    -0.59900
H737        H  0.53519316  0.78195817  0.19873035     0.44200
H738        H  0.64092977  0.79622615  0.00466126     0.44100
C739        C  0.61167557  0.65643230  0.31250951    -0.04900
C740        C  0.59387824  0.65405805  0.35996650    -0.32400
C741        C  0.56849047  0.61315370  0.37833031     0.36900
C742        C  0.56189782  0.57311430  0.34941416    -0.05300
C743        C  0.57988623  0.57635357  0.30205102    -0.32300
C744        C  0.60286948  0.61717074  0.28333343     0.36800
H745        H  0.60037002  0.68348580  0.38318588     0.17100
O746        O  0.55235423  0.61172224  0.42513768    -0.59800
H747        H  0.57533378  0.54787033  0.27764256     0.17200
O748        O  0.61804050  0.61709236  0.23624472    -0.59900
H749        H  0.58879344  0.62845817  0.21719353     0.44200
H750        H  0.53242482  0.64133160  0.42880111     0.44100
C751        C  0.89649186  0.32695093  0.82221375    -0.04900
C752        C  0.91814600  0.29830368  0.85904651    -0.32400
C753        C  0.93521380  0.31776878  0.90055224     0.36900
C754        C  0.93316429  0.36804417  0.90530676    -0.05300
C755        C  0.91579813  0.39732177  0.86605649    -0.32300
C756        C  0.89692049  0.37702458  0.82484876     0.36800
H757        H  0.92043320  0.25974731  0.85679693     0.17100
O758        O  0.95797364  0.28734254  0.93391398    -0.59800
H759        H  0.91752693  0.43593753  0.86744357     0.17200
O760        O  0.87717297  0.40616995  0.78869917    -0.59900
H761        H  0.90617343  0.41896927  0.77052338     0.44200
H762        H  0.93076923  0.26846030  0.94928718     0.44100
C763        C  0.86727506  0.13600516  0.71237328    -0.04900
C764        C  0.91493888  0.12054793  0.72662275    -0.32400
C765        C  0.93358782  0.07803539  0.70772074     0.36900
C766        C  0.91656306  0.06568323  0.66135498    -0.05300
C767        C  0.86411455  0.06753175  0.66101110    -0.32300
C768        C  0.83915937  0.10449982  0.68501672     0.36800
H769        H  0.93244654  0.13569764  0.75746942     0.17100
O770        O  0.94529201  0.04211590  0.74111730    -0.59800
H771        H  0.84332296  0.04263268  0.64057832     0.17200
O772        O  0.78853133  0.10918057  0.68214323    -0.59900
H773        H  0.77570733  0.09130797  0.71097739     0.44200
H774        H  0.91360815  0.02570091  0.74913888     0.44100
C775        C  0.64987730  0.08423915  0.93580310    -0.04900
C776        C  0.63202618  0.13174339  0.94116098    -0.32400
C777        C  0.65697898  0.17186447  0.92160610     0.36900
C778        C  0.69932770  0.16533786  0.89339945    -0.05300
C779        C  0.71950479  0.11870140  0.89099518    -0.32300
C780        C  0.69549300  0.07867495  0.91138279     0.36800
H781        H  0.59654663  0.13788524  0.95802680     0.17100
O782        O  0.63691094  0.21660635  0.92656274    -0.59800
H783        H  0.75259893  0.11235611  0.86992246     0.17200
O784        O  0.71418487  0.03421159  0.90205079    -0.59900
H785        H  0.74579649  0.03122359  0.92022629     0.44200
H786        H  0.64964852  0.22704803  0.95776359     0.44100
C787        C  0.78472045  0.36623695  0.87086680    -0.04900
C788        C  0.78329180  0.41553272  0.85687728    -0.32400
C789        C  0.80890545  0.44980974  0.88395183     0.36900
C790        C  0.83780624  0.43484851  0.92471191    -0.05300
C791        C  0.83642830  0.38605175  0.93778426    -0.32300
C792        C  0.80940286  0.35281673  0.91369181     0.36800
H793        H  0.76393675  0.42727220  0.82429801     0.17100
O794        O  0.80647815  0.49725302  0.86964921    -0.59800
H795        H  0.86111421  0.37164487  0.96442558     0.17200
O796        O  0.81056083  0.30620555  0.93127448    -0.59900
H797        H  0.77684437  0.30024441  0.94444463     0.44200
H798        H  0.83398272  0.50185820  0.84619621     0.44100
C799        C  0.64860347  0.13625794  0.78616419    -0.04900
C800        C  0.66371934  0.08789858  0.78378909    -0.32400
C801        C  0.63985518  0.05120741  0.81226370     0.36900
C802        C  0.60215042  0.06300833  0.84591404    -0.05300
C803        C  0.59058011  0.11158583  0.84890376    -0.32300
C804        C  0.60976451  0.14674324  0.81846299     0.36800
H805        H  0.69384439  0.07846134  0.76011130     0.17100
O806        O  0.65506607  0.00455093  0.80854713    -0.59800
H807        H  0.56578356  0.12361092  0.87626504     0.17200
O808        O  0.59149951  0.19227475  0.82367930    -0.59900
H809        H  0.56390538  0.19606088  0.80008404     0.44200
H810        H  0.64703827  0.99619704  0.77513552     0.44100
C811        C  0.59424883  0.30417536  0.68052353    -0.04900
C812        C  0.58609393  0.35283430  0.67213803    -0.32400
C813        C  0.55655353  0.36906130  0.63326122     0.36900
C814        C  0.53470096  0.33570979  0.60312033    -0.05300
C815        C  0.53419601  0.28733928  0.61900996    -0.32300
C816        C  0.56378634  0.27144099  0.65759950     0.36800
H817        H  0.60746170  0.37822154  0.69161930     0.17100
O818        O  0.55762550  0.41637151  0.61916239    -0.59800
H819        H  0.51317710  0.26118902  0.60019713     0.17200
O820        O  0.56478659  0.22363937  0.67113448    -0.59900
H821        H  0.58209280  0.20742668  0.64470253     0.44200
H822        H  0.56174483  0.43432590  0.64889977     0.44100
C823        C  0.72667800  0.38095959  0.62476814    -0.04900
C824        C  0.69112640  0.41379022  0.64125484    -0.32400
C825        C  0.66341508  0.44290518  0.60751367     0.36900
C826        C  0.66446035  0.43273705  0.55808742    -0.05300
C827        C  0.71227469  0.41667701  0.54410875    -0.32300
C828        C  0.74124897  0.38727575  0.57623474     0.36800
H829        H  0.68421576  0.41612996  0.67939093     0.17100
O830        O  0.63358880  0.47904455  0.62298329    -0.59800
H831        H  0.72278375  0.41826534  0.50688513     0.17200
O832        O  0.78154564  0.36302802  0.55920560    -0.59900
H833        H  0.81082635  0.38022649  0.57085189     0.44200
H834        H  0.65502050  0.50779462  0.62214728     0.44100
C835        C  0.79847878  0.19619188  0.57791300    -0.04900
C836        C  0.80360577  0.14663384  0.57666313    -0.32400
C837        C  0.84642580  0.12592781  0.55684108     0.36900
C838        C  0.88332830  0.15519529  0.53497447    -0.05300
C839        C  0.87408957  0.20483376  0.53061521    -0.32300
C840        C  0.83236024  0.22513032  0.55188949     0.36800
H841        H  0.77674059  0.12397684  0.59508105     0.17100
O842        O  0.85354374  0.07728252  0.55986721    -0.59800
H843        H  0.89967689  0.22855884  0.51183203     0.17200
O844        O  0.82688971  0.27387930  0.55011203    -0.59900
H845        H  0.80797370  0.28137001  0.52016887     0.44200
H846        H  0.82054364  0.06221418  0.56437193     0.44100
C847        C  0.36927447  0.77366867  0.87376566    -0.04900
C848        C  0.35868381  0.77432639  0.92282574    -0.32400
C849        C  0.38259892  0.80667354  0.95197196     0.36900
C850        C  0.41019144  0.84496213  0.93066924    -0.05300
C851        C  0.42964958  0.83673255  0.88474966    -0.32300
C852        C  0.41032736  0.80008455  0.85665314     0.36800
H853        H  0.33088836  0.75059306  0.93844136     0.17100
O854        O  0.37776321  0.80149004  0.00086364    -0.59800
H855        H  0.45694369  0.86089267  0.86949054     0.17200
O856        O  0.42821701  0.79379377  0.81126232    -0.59900
H857        H  0.45378495  0.76813374  0.81516147     0.44200
H858        H  0.38571992  0.76758375  0.00964523     0.44100
C859        C  0.18522779  0.66552287  0.89302898    -0.04900
C860        C  0.13361770  0.66223954  0.89659207    -0.32400
C861        C  0.11193426  0.62359769  0.92278822     0.36900
C862        C  0.14262011  0.58806736  0.94541433    -0.05300
C863        C  0.19403326  0.59545839  0.94654316    -0.32300
C864        C  0.21500810  0.63435982  0.92235868     0.36800
H865        H  0.11016616  0.68903717  0.87863090     0.17100
O866        O  0.06118365  0.62144320  0.92817064    -0.59800
H867        H  0.21847730  0.57252640  0.96831242     0.17200
O868        O  0.26503307  0.64148424  0.92797203    -0.59900
H869        H  0.26757903  0.66571880  0.95276286     0.44200
H870        H  0.04899958  0.65469310  0.93252635     0.44100
C871        C  0.14779846  0.86620021  0.70663211    -0.04900
C872        C  0.09724701  0.85338660  0.70664924    -0.32400
C873        C  0.06149172  0.88228827  0.68187883     0.36900
C874        C  0.07591300  0.92506417  0.65679635    -0.05300
C875        C  0.12620562  0.93808140  0.65962202    -0.32300
C876        C  0.16133684  0.91022454  0.68464251     0.36800
H877        H  0.08579425  0.81972977  0.72364605     0.17100
O878        O  0.01313859  0.86739460  0.68079759    -0.59800
H879        H  0.14029312  0.96830368  0.63907812     0.17200
O880        O  0.20968720  0.92537425  0.68463212    -0.59900
H881        H  0.21095567  0.95014652  0.70909747     0.44200
H882        H  0.00948687  0.85180869  0.64961574     0.44100
C883        C  0.33547865  0.88652415  0.79388487    -0.04900
C884        C  0.38691627  0.89078694  0.78677710    -0.32400
C885        C  0.41379827  0.92464466  0.81141412     0.36900
C886        C  0.38890535  0.95418268  0.84324947    -0.05300
C887        C  0.33659271  0.95618360  0.84130102    -0.32300
C888        C  0.30986735  0.92218240  0.81817724     0.36800
H889        H  0.40649997  0.86712905  0.76335756     0.17100
O890        O  0.46415101  0.92797749  0.80492635    -0.59800
H891        H  0.31625026  0.98385261  0.85885508     0.17200
O892        O  0.25888981  0.92432237  0.81976642    -0.59900
H893        H  0.24972322  0.91115180  0.85213416     0.44200
H894        H  0.46851140  0.94212830  0.77186727     0.44100
C895        C  0.37651734  0.70164741  0.61958531    -0.04900
C896        C  0.42316654  0.68503830  0.63723839    -0.32400
C897        C  0.45498607  0.65708978  0.60833916     0.36900
C898        C  0.43951042  0.64399872  0.56229260    -0.05300
C899        C  0.39902037  0.67208518  0.54235896    -0.32300
C900        C  0.36702040  0.69814525  0.57062454     0.36800
H901        H  0.43334868  0.69065616  0.67420895     0.17100
O902        O  0.49970855  0.64081698  0.62631958    -0.59800
H903        H  0.38831104  0.67090586  0.50513414     0.17200
O904        O  0.32486709  0.71815135  0.55015712    -0.59900
H905        H  0.33465673  0.75073790  0.53848407     0.44200
H906        H  0.52437013  0.66428246  0.61394141     0.44100
C907        C  0.18681563  0.82167134  0.60444555    -0.04900
C908        C  0.21656064  0.85816434  0.58395448    -0.32400
C909        C  0.19610659  0.90059350  0.56417762     0.36900
C910        C  0.14385340  0.90792891  0.56373744    -0.05300
C911        C  0.11392246  0.86911329  0.57989918    -0.32300
C912        C  0.13491185  0.82642306  0.60006180     0.36800
H913        H  0.25670312  0.85490624  0.58469190     0.17100
O914        O  0.22800623  0.93340346  0.54351630    -0.59800
H915        H  0.07391590  0.87235088  0.57751024     0.17200
O916        O  0.10426842  0.79076688  0.61715115    -0.59900
H917        H  0.10166147  0.76838540  0.59050507     0.44200
H918        H  0.24549897  0.94768791  0.57073521     0.44100
C919        C  0.34588676  0.59916165  0.68243992    -0.04900
C920        C  0.39396361  0.59318972  0.70076075    -0.32400
C921        C  0.43131375  0.57073029  0.67507503     0.36900
C922        C  0.42118335  0.55177310  0.62930791    -0.05300
C923        C  0.37174308  0.55614969  0.61220556    -0.32300
C924        C  0.33460541  0.57981282  0.63792456     0.36800
H925        H  0.40373886  0.60813308  0.73476894     0.17100
O926        O  0.47821481  0.57080873  0.69426319    -0.59800
H927        H  0.36111472  0.53959093  0.57939741     0.17200
O928        O  0.28764229  0.58394145  0.61898624    -0.59900
H929        H  0.28874959  0.61208546  0.59623961     0.44200
H930        H  0.47692379  0.54926933  0.72347505     0.44100
C931        C  0.07775741  0.55393548  0.83851181    -0.04900
C932        C  0.06470621  0.60251244  0.82857671    -0.32400
C933        C  0.09615587  0.63343220  0.80023708     0.36900
C934        C  0.14230323  0.61618284  0.78313642    -0.05300
C935        C  0.14956006  0.56718968  0.78427868    -0.32300
C936        C  0.11564861  0.53636074  0.80678709     0.36800
H937        H  0.03102646  0.61697528  0.84377417     0.17100
O938        O  0.08338032  0.68076081  0.79302497    -0.59800
H939        H  0.18126855  0.55216570  0.76591880     0.17200
O940        O  0.12112100  0.48927800  0.79632312    -0.59900
H941        H  0.10337413  0.48588702  0.76542313     0.44200
H942        H  0.05913733  0.68161354  0.76613060     0.44100
loop_ 
_geom_bond_atom_site_label_1 
_geom_bond_atom_site_label_2 
_geom_bond_distance 
_geom_bond_site_symmetry_2 
_ccdc_geom_bond_type 
O1            C9   1.256       .  A
O1          Co21   1.945       .  S
O2           C10   1.253       .  A
O2          Co22   1.950       .  S
O3           C11   1.293       .  A
O3          Co23   2.074       .  S
O4           C12   1.285       .  A
O4          Co24   2.052       .  S
O5           C11   1.270       .  A
O5          Co22   1.975       .  S
O6           C12   1.277       .  A
O6          Co21   1.993       .  S
O7           C10   1.258       .  A
O7          Co24   1.988       .  S
O8            C9   1.264       .  A
O8          Co23   2.026       .  S
C9          C919   1.482       .  S
C10         C883   1.462       .  S
C11         C895   1.493       .  S
C12         C847   1.487       .  S
O13          C26   1.248       .  A
O13         Co21   1.963       .  S
O14          C27   1.252       .  A
O14         Co22   1.992       .  S
O15          C28   1.269       .  A
O15         Co23   1.976       .  S
O16          C29   1.271       .  A
O16         Co24   1.957       .  S
O17          C29   1.291       .  A
O17         Co22   2.063       .  S
O18          C28   1.295       .  A
O18         Co21   2.079       .  S
O19          C26   1.262       .  A
O19         Co24   2.000       .  S
O20          C27   1.263       .  A
O20         Co23   2.014       .  S
Co21         O25   2.071       .  S
Co22         O25   2.081       .  S
Co23         O25   2.108       .  S
Co24         O25   2.107       .  S
C26         C859   1.474       .  S
C27         C907   1.492       .  S
C28         C934   1.497       .  S
C29         C871   1.485       .  S
O30          C38   1.247       .  A
O30         Co50   1.972       .  S
O31          C39   1.277       .  A
O31         Co51   1.977       .  S
O32          C40   1.264       .  A
O32         Co52   1.965       .  S
O33          C41   1.247       .  A
O33         Co53   1.971       .  S
O34          C40   1.276       .  A
O34         Co51   1.990       .  S
O35          C41   1.245       .  A
O35         Co50   1.976       .  S
O36          C39   1.295       .  A
O36         Co53   2.049       .  S
O37          C38   1.275       .  A
O37         Co52   2.106       .  S
C38         C823   1.506       .  S
C39         C787   1.497       .  S
C40         C811   1.462       .  S
C41         C751   1.462       .  S
O42          C55   1.286       .  A
O42         Co50   2.072       .  S
O43          C56   1.281       .  A
O43         Co51   2.010       .  S
O44          C57   1.279       .  A
O44         Co52   1.908       .  S
O45          C58   1.237       .  A
O45         Co53   1.909       .  S
O46          C58   1.265       .  A
O46         Co51   2.058       .  S
O47          C57   1.294       .  A
O47         Co50   2.070       .  S
O48          C55   1.251       .  A
O48         Co53   1.933       .  S
O49          C56   1.289       .  A
O49         Co52   2.019       .  S
Co50         O54   2.104       .  S
Co51         O54   2.064       .  S
Co52         O54   1.964       .  S
Co53         O54   2.035       .  S
C55         C763   1.473       .  S
C56         C799   1.504       .  S
C57         C835   1.471       .  S
C58         C778   1.489       .  S
O59          C67   1.272       .  A
O59         Co79   1.951       .  S
O60          C68   1.270       .  A
O60         Co80   2.023       .  S
O61          C69   1.261       .  A
O61         Co81   1.998       .  S
O62          C70   1.325       .  A
O62         Co82   2.187       .  S
O63          C69   1.270       .  A
O63         Co80   1.997       .  S
O64          C70   1.276       .  A
O64         Co79   1.850       .  S
O65          C68   1.261       .  A
O65         Co82   1.981       .  S
O66          C67   1.289       .  A
O66         Co81   2.055       .  S
C67         C727   1.486       .  S
C68         C679   1.496       .  S
C69         C667   1.488       .  S
C70         C718   1.474       .  S
O71          C84   1.254       .  A
O71         Co79   2.071       .  S
O72          C85   1.282       .  A
O72         Co80   2.002       .  S
O73          C86   1.281       .  A
O73         Co81   2.018       .  S
O74          C87   1.267       .  A
O74         Co82   1.982       .  S
O75          C87   1.273       .  A
O75         Co80   2.027       .  S
O76          C86   1.267       .  A
O76         Co79   1.991       .  S
O77          C84   1.237       .  A
O77         Co82   1.989       .  S
O78          C85   1.291       .  A
O78         Co81   2.026       .  S
Co79         O83   1.976       .  S
Co80         O83   2.067       .  S
Co81         O83   2.063       .  S
Co82         O83   2.065       .  S
C84         C703   1.497       .  S
C85         C655   1.506       .  S
C86         C739   1.492       .  S
C87         C691   1.494       .  S
C88          C89   1.473   1_564  A
C88          C93   1.467       .  A
C88          N94   1.504       .  S
C89          C90   1.466       .  A
C89         N101   1.500       .  S
C90          C91   1.506   1_545  A
C90         N115   1.513       .  S
C91          C92   1.484       .  A
C91         N108   1.507   1_565  S
C92          C93   1.462   1_556  A
C92         N129   1.496       .  S
C93         N122   1.501       .  S
N94          C98   1.382   1_565  A
N94          C95   1.362       .  A
C95         C670   1.516       .  S
C95          C96   1.388       .  A
C96          C97   1.368   1_565  A
C96          H99   1.082       .  S
C97          C98   1.384       .  A
C97         H100   1.082       .  S
C98         C643   1.533       .  S
N101        C105   1.368       .  A
N101        C102   1.360   1_556  A
C102        C634   1.511       .  S
C102        C103   1.386       .  A
C103        C104   1.362   1_554  A
C103        H106   1.083       .  S
C104        C105   1.388       .  A
C104        H107   1.078   1_545  S
C105        C775   1.529       .  S
N108        C112   1.388   1_545  A
N108        C109   1.380       .  A
C109        C619   1.497       .  S
C109        C110   1.389       .  A
C110        C111   1.327       .  A
C110        H113   1.073       .  S
C111        C112   1.379   1_545  A
C111        H114   1.085       .  S
C112        C886   1.463       .  S
N115        C119   1.394       .  A
N115        C116   1.357       .  A
C116        C607   1.527       .  S
C116        C117   1.398       .  A
C117        C118   1.359       .  A
C117        H120   1.080       .  S
C118        C119   1.377       .  A
C118        H121   1.081   1_545  S
C119        C802   1.547       .  S
N122        C126   1.368       .  A
N122        C123   1.376       .  A
C123        C730   1.521       .  S
C123        C124   1.378   1_554  A
C124        C125   1.358   1_556  A
C124        H127   1.081       .  S
C125        C126   1.391       .  A
C125        H128   1.075   1_554  S
C126        C595   1.521       .  S
N129        C133   1.377       .  A
N129        C130   1.388   1_556  A
C130        C586   1.528       .  S
C130        C131   1.378   1_554  A
C131        C132   1.359       .  A
C131        H134   1.085       .  S
C132        C133   1.372       .  A
C132        H135   1.082       .  S
C133        C850   1.517       .  S
C136        C137   1.479   1_455  A
C136        C141   1.491   1_556  A
C136        N149   1.532       .  S
C137        C138   1.487       .  A
C137        N170   1.511       .  S
C138        C139   1.477   1_556  A
C138        N177   1.503       .  S
C139        C140   1.482       .  A
C139        N163   1.506       .  S
C140        C141   1.503   1_655  A
C140        N156   1.521       .  S
C141        N142   1.508       .  S
N142        C146   1.381       .  A
N142        C143   1.354   1_554  A
C143        C862   1.480       .  S
C143        C144   1.387       .  A
C144        C145   1.357   1_556  A
C144        H147   1.081       .  S
C145        C146   1.387       .  A
C145        H148   1.081       .  S
C146        C571   1.549       .  S
N149        C153   1.380       .  A
N149        C150   1.404       .  A
C150        C931   1.565       .  S
C150        C151   1.368       .  A
C151        C152   1.368       .  A
C151        H154   1.084       .  S
C152        C153   1.360       .  A
C152        H155   1.083       .  S
C153        C559   1.531       .  S
N156        C160   1.367   1_655  A
N156        C157   1.387       .  A
C157        C682   1.554       .  S
C157        C158   1.380       .  A
C158        C159   1.358   1_655  A
C158        H161   1.080   1_554  S
C159        C160   1.398       .  A
C159        H162   1.080       .  S
C160        C547   1.530       .  S
N163        C167   1.391       .  A
N163        C164   1.390       .  A
C164        C715   1.533       .  S
C164        C165   1.379       .  A
C165        C166   1.359       .  A
C165        H168   1.080       .  S
C166        C167   1.372       .  A
C166        H169   1.085       .  S
C167        C535   1.511       .  S
N170        C174   1.379   1_655  A
N170        C171   1.358       .  A
C171        C754   1.488       .  S
C171        C172   1.381       .  A
C172        C173   1.359   1_655  A
C172        H175   1.080   1_556  S
C173        C174   1.387       .  A
C173        H176   1.080   1_556  S
C174        C523   1.548       .  S
N177        C181   1.392       .  A
N177        C178   1.371   1_556  A
C178        C511   1.531       .  S
C178        C179   1.385       .  A
C179        C180   1.363   1_554  A
C179        H182   1.078       .  S
C180        C181   1.375       .  A
C180        H183   1.084       .  S
C181        C790   1.535       .  S
C184        C185   1.507       .  A
C184        C189   1.481       .  A
C184        N190   1.496       .  S
C185        C186   1.484       .  A
C185        N225   1.538       .  S
C186        C187   1.486       .  A
C186        N204   1.490       .  S
C187        C188   1.463       .  A
C187        N211   1.514       .  S
C188        C189   1.451       .  A
C188        N197   1.597       .  S
C189        N218   1.513       .  S
N190        C194   1.384       .  A
N190        C191   1.349       .  A
C191        C814   1.503       .  S
C191        C192   1.392       .  A
C192        C193   1.362       .  A
C192        H195   1.082       .  S
C193        C194   1.385       .  A
C193        H196   1.081       .  S
C194        C499   1.537       .  S
N197        C201   1.553       .  A
N197        C198   1.512       .  A
C198        C487   1.525       .  S
C198        C199   1.241       .  A
C199        C200   1.355       .  A
C199        H202   1.147       .  S
C200        C201   1.243       .  A
C200        H203   1.114       .  S
C201        C898   1.606       .  S
N204        C208   1.370       .  A
N204        C205   1.386       .  A
C205        C706   1.525       .  S
C205        C206   1.380       .  A
C206        C207   1.361       .  A
C206        H209   1.084       .  S
C207        C208   1.376       .  A
C207        H210   1.083       .  S
C208        C475   1.504       .  S
N211        C215   1.358       .  A
N211        C212   1.397       .  A
C212        C463   1.553       .  S
C212        C213   1.376       .  A
C213        C214   1.360       .  A
C213        H216   1.084       .  S
C214        C215   1.393       .  A
C214        H217   1.076       .  S
C215        C742   1.505       .  S
N218        C222   1.369       .  A
N218        C219   1.374       .  A
C219        C922   1.534       .  S
C219        C220   1.376       .  A
C220        C221   1.357       .  A
C220        H223   1.076       .  S
C221        C222   1.389       .  A
C221        H224   1.084       .  S
C222        C451   1.528       .  S
N225        C229   1.405       .  A
N225        C226   1.399       .  A
C226        C826   1.518       .  S
C226        C227   1.385       .  A
C227        C228   1.326       .  A
C227        H230   1.075       .  S
C228        C229   1.381       .  A
C228        H231   1.086       .  S
C229        C439   1.492       .  S
C232        C233   1.492   1_565  A
C232        C237   1.486   1_455  A
C232        N252   1.528       .  S
C233        C234   1.488   1_455  A
C233        N245   1.506   1_545  S
C234        C235   1.508       .  A
C234        N238   1.531       .  S
C235        C236   1.485       .  A
C235        N259   1.501       .  S
C236        C237   1.471   1_545  A
C236        N266   1.526   1_545  S
C237        N273   1.499       .  S
N238        C242   1.397       .  A
N238        C239   1.398   1_655  A
C239        C430   1.498       .  S
C239        C240   1.384   1_455  A
C240        C241   1.338       .  A
C240        H243   1.086       .  S
C241        C242   1.387       .  A
C241        H244   1.074       .  S
C242        C766   1.528       .  S
N245        C249   1.378       .  A
N245        C246   1.369   1_565  A
C246        C415   1.528       .  S
C246        C247   1.374       .  A
C247        C248   1.363   1_545  A
C247        H250   1.069       .  S
C248        C249   1.380       .  A
C248        H251   1.083   1_455  S
C249        C874   1.518       .  S
N252        C256   1.395       .  A
N252        C253   1.359       .  A
C253        C910   1.515       .  S
C253        C254   1.387       .  A
C254        C255   1.370   1_565  A
C254        H257   1.081   1_565  S
C255        C256   1.388   1_545  A
C255        H258   1.082       .  S
C256        C403   1.569       .  S
N259        C263   1.356       .  A
N259        C260   1.376       .  A
C260        C391   1.531       .  S
C260        C261   1.386       .  A
C261        C262   1.358       .  A
C261        H264   1.082   1_655  S
C262        C263   1.394       .  A
C262        H265   1.082       .  S
C263        C838   1.512       .  S
N266        C270   1.386       .  A
N266        C267   1.376   1_565  A
C267        C382   1.550       .  S
C267        C268   1.390       .  A
C268        C269   1.358   1_545  A
C268        H271   1.081       .  S
C269        C270   1.377       .  A
C269        H272   1.082       .  S
C270        C658   1.538       .  S
N273        C277   1.373       .  A
N273        C274   1.356   1_655  A
C274        C367   1.515       .  S
C274        C275   1.400       .  A
C275        C276   1.360   1_455  A
C275        H278   1.079       .  S
C276        C277   1.383       .  A
C276        H279   1.081       .  S
C277        C694   1.537       .  S
O280        C288   1.250       .  A
O280       Co300   1.968       .  S
O281        C289   1.265       .  A
O281       Co301   2.008       .  S
O282        C290   1.279       .  A
O282       Co302   2.030       .  S
O283        C291   1.285       .  A
O283       Co303   2.026       .  S
O284        C290   1.274       .  A
O284       Co301   1.987       .  S
O285        C291   1.267       .  A
O285       Co300   1.961       .  S
O286        C289   1.266       .  A
O286       Co303   2.016       .  S
O287        C288   1.267       .  A
O287       Co302   2.044       .  S
C288        C418   1.497       .  S
C289        C454   1.504       .  S
C290        C427   1.495       .  S
C291        C502   1.476       .  S
O292        C305   1.255       .  A
O292       Co300   1.969       .  S
O293        C306   1.265       .  A
O293       Co301   2.009       .  S
O294        C307   1.243       .  A
O294       Co302   1.917       .  S
O295        C308   1.286       .  A
O295       Co303   2.014       .  S
O296        C308   1.288       .  A
O296       Co301   2.068       .  S
O297        C307   1.294       .  A
O297       Co300   2.102       .  S
O298        C305   1.277       .  A
O298       Co303   2.048       .  S
O299        C306   1.239       .  A
O299       Co302   1.920       .  S
Co300       O304   2.091       .  S
Co301       O304   2.114       .  S
Co302       O304   2.078       .  S
Co303       O304   2.096       .  S
C305        C610   1.507       .  S
C306        C526   1.457       .  S
C307        C622   1.476       .  S
C308        C562   1.514       .  S
O309        C317   1.280       .  A
O309       Co329   2.019       .  S
O310        C318   1.274       .  A
O310       Co330   2.034       .  S
O311        C319   1.295       .  A
O311       Co331   2.037       .  S
O312        C320   1.227       .  A
O312       Co332   1.930       .  S
O313        C319   1.281       .  A
O313       Co330   1.973       .  S
O314        C320   1.258       .  A
O314       Co329   2.056       .  S
O315        C318   1.240       .  A
O315       Co332   1.931       .  S
O316        C317   1.290       .  A
O316       Co331   2.044       .  S
C317        C379   1.518       .  S
C318        C538   1.473       .  S
C319        C514   1.496       .  S
C320        C394   1.453       .  S
O321        C334   1.283       .  A
O321       Co329   1.915       .  S
O322        C335   1.267       .  A
O322       Co330   1.998       .  S
O323        C336   1.291       .  A
O323       Co331   2.052       .  S
O324        C337   1.270       .  A
O324       Co332   2.017       .  S
O325        C337   1.268       .  A
O325       Co330   2.001       .  S
O326        C336   1.279       .  A
O326       Co329   1.981       .  S
O327        C334   1.297       .  A
O327       Co332   2.073       .  S
O328        C335   1.259       .  A
O328       Co331   1.984       .  S
Co329       O333   1.971       .  S
Co330       O333   2.044       .  S
Co331       O333   2.051       .  S
Co332       O333   2.057       .  S
C334        C442   1.463       .  S
C335        C631   1.478       .  S
C336        C646   1.501       .  S
C337        C478   1.484       .  S
O338        C346   1.281       .  A
O338       Co358   2.011       .  S
O339        C347   1.287       .  A
O339       Co359   2.068       .  S
O340        C348   1.264       .  A
O340       Co360   1.998       .  S
O341        C349   1.322       .  A
O341       Co361   2.175       .  S
O342        C348   1.264       .  A
O342       Co359   1.975       .  S
O343        C349   1.279       .  A
O343       Co358   1.838       .  S
O344        C347   1.259       .  A
O344       Co361   1.967       .  S
O345        C346   1.291       .  A
O345       Co360   2.073       .  S
C346        C466   1.525       .  S
C347        C550   1.517       .  S
C348        C490   1.467       .  S
C349        C574   1.470       .  S
O350        C363   1.262       .  A
O350       Co358   2.074       .  S
O351        C364   1.299       .  A
O351       Co359   2.056       .  S
O352        C365   1.284       .  A
O352       Co360   2.035       .  S
O353        C366   1.280       .  A
O353       Co361   2.056       .  S
O354        C366   1.256       .  A
O354       Co359   1.963       .  S
O355        C365   1.270       .  A
O355       Co358   1.996       .  S
O356        C363   1.243       .  A
O356       Co361   1.985       .  S
O357        C364   1.289       .  A
O357       Co360   2.014       .  S
Co358       O362   1.958       .  S
Co359       O362   2.050       .  S
Co360       O362   2.058       .  S
Co361       O362   2.069       .  S
C363        C583   1.498       .  S
C364        C406   1.515       .  S
C365        C598   1.503       .  S
C366        C370   1.504       .  S
C367        C368   1.420       .  A
C367        C372   1.410       .  A
C368        C369   1.422       .  A
C368        H373   1.083       .  S
C369        C370   1.407       .  A
C369        O374   1.370       .  S
C370        C371   1.411       .  A
C371        C372   1.384       .  A
C371        H375   1.083       .  S
C372        O376   1.373       .  S
O374        H378   0.992       .  S
O376        H377   0.995       .  S
C379        C380   1.405       .  A
C379        C384   1.415       .  A
C380        C381   1.401       .  A
C380        H385   1.083       .  S
C381        C382   1.426       .  A
C381        O386   1.371       .  S
C382        C383   1.419       .  A
C383        C384   1.426       .  A
C383        H387   1.083       .  S
C384        O388   1.370       .  S
O386        H390   0.991   1_545  S
O388        H389   0.992       .  S
C391        C392   1.418       .  A
C391        C396   1.427       .  A
C392        C393   1.403       .  A
C392        H397   1.082       .  S
C393        C394   1.404       .  A
C393        O398   1.371       .  S
C394        C395   1.375       .  A
C395        C396   1.379       .  A
C395        H399   1.085       .  S
C396        O400   1.363       .  S
O398        H402   0.991       .  S
O400        H401   0.993       .  S
C403        C404   1.429       .  A
C403        C408   1.425       .  A
C404        C405   1.432       .  A
C404        H409   1.082       .  S
C405        C406   1.415       .  A
C405        O410   1.370       .  S
C406        C407   1.389       .  A
C407        C408   1.400       .  A
C407        H411   1.084       .  S
C408        O412   1.354       .  S
O410        H414   0.990       .  S
O412        H413   0.995       .  S
C415        C416   1.406       .  A
C415        C420   1.431       .  A
C416        C417   1.419       .  A
C416        H421   1.082       .  S
C417        C418   1.418       .  A
C417        O422   1.375       .  S
C418        C419   1.394       .  A
C419        C420   1.397       .  A
C419        H423   1.084       .  S
C420        O424   1.375       .  S
O422        H426   0.993       .  S
O424        H425   0.993       .  S
C427        C428   1.410       .  A
C427        C432   1.411       .  A
C428        C429   1.414       .  A
C428        H433   1.083       .  S
C429        C430   1.415       .  A
C429        O434   1.371       .  S
C430        C431   1.410       .  A
C431        C432   1.390       .  A
C431        H435   1.073       .  S
C432        O436   1.373       .  S
O434        H438   0.993       .  S
O436        H437   0.991       .  S
C439        C440   1.415       .  A
C439        C444   1.420       .  A
C440        C441   1.410       .  A
C440        H445   1.082       .  S
C441        C442   1.403       .  A
C441        O446   1.371       .  S
C442        C443   1.393       .  A
C443        C444   1.379       .  A
C443        H447   1.085       .  S
C444        O448   1.367       .  S
O446        H450   0.989       .  S
O448        H449   0.995       .  S
C451        C452   1.412       .  A
C451        C456   1.411       .  A
C452        C453   1.393       .  A
C452        H457   1.082       .  S
C453        C454   1.409       .  A
C453        O458   1.373       .  S
C454        C455   1.414       .  A
C455        C456   1.423       .  A
C455        H459   1.083       .  S
C456        O460   1.370       .  S
O458        H462   0.997       .  S
O460        H461   0.991       .  S
C463        C464   1.414       .  A
C463        C468   1.426       .  A
C464        C465   1.411       .  A
C464        H469   1.067       .  S
C465        C466   1.411       .  A
C465        O470   1.372       .  S
C466        C467   1.415       .  A
C467        C468   1.428       .  A
C467        H471   1.083       .  S
C468        O472   1.373       .  S
O470        H474   0.992       .  S
O472        H473   0.991       .  S
C475        C476   1.405       .  A
C475        C480   1.406       .  A
C476        C477   1.399       .  A
C476        H481   1.074       .  S
C477        C478   1.405       .  A
C477        O482   1.372       .  S
C478        C479   1.406       .  A
C479        C480   1.415       .  A
C479        H483   1.082       .  S
C480        O484   1.368       .  S
O482        H486   0.990       .  S
O484        H485   0.993       .  S
C487        C488   1.411       .  A
C487        C492   1.421       .  A
C488        C489   1.403       .  A
C488        H493   1.083       .  S
C489        C490   1.405       .  A
C489        O494   1.371       .  S
C490        C491   1.394       .  A
C491        C492   1.386       .  A
C491        H495   1.084       .  S
C492        O496   1.375       .  S
O494        H498   0.992       .  S
O496        H497   0.994       .  S
C499        C500   1.403       .  A
C499        C504   1.423       .  A
C500        C501   1.369       .  A
C500        H505   1.054       .  S
C501        C502   1.395       .  A
C501        O506   1.375       .  S
C502        C503   1.412       .  A
C503        C504   1.418       .  A
C503        H507   1.083       .  S
C504        O508   1.371       .  S
O506        H510   0.992       .  S
O508        H509   0.992       .  S
C511        C512   1.408       .  A
C511        C516   1.422       .  A
C512        C513   1.385       .  A
C512        H517   1.081       .  S
C513        C514   1.406       .  A
C513        O518   1.379       .  S
C514        C515   1.410       .  A
C515        C516   1.433       .  A
C515        H519   1.082       .  S
C516        O520   1.375       .  S
O518        H522   0.993       .  S
O520        H521   0.991       .  S
C523        C524   1.418       .  A
C523        C528   1.440       .  A
C524        C525   1.398       .  A
C524        H529   1.080       .  S
C525        C526   1.401       .  A
C525        O530   1.372       .  S
C526        C527   1.372       .  A
C527        C528   1.385       .  A
C527        H531   1.085       .  S
C528        O532   1.369       .  S
O530        H534   0.989       .  S
O532        H533   0.998       .  S
C535        C536   1.388       .  A
C535        C540   1.413       .  A
C536        C537   1.371       .  A
C536        H541   1.028       .  S
C537        C538   1.387       .  A
C537        O542   1.373       .  S
C538        C539   1.421       .  A
C539        C540   1.418       .  A
C539        H543   1.083       .  S
C540        O544   1.371       .  S
O542        H546   0.991       .  S
O544        H545   0.993       .  S
C547        C548   1.403       .  A
C547        C552   1.426       .  A
C548        C549   1.386       .  A
C548        H553   1.082       .  S
C549        C550   1.424       .  A
C549        O554   1.374       .  S
C550        C551   1.410       .  A
C551        C552   1.430       .  A
C551        H555   1.082       .  S
C552        O556   1.371       .  S
O554        H558   0.991       .  S
O556        H557   0.991       .  S
C559        C560   1.411       .  A
C559        C564   1.412       .  A
C560        C561   1.424       .  A
C560        H565   1.079       .  S
C561        C562   1.409       .  A
C561        O566   1.368       .  S
C562        C563   1.407       .  A
C563        C564   1.417       .  A
C563        H567   1.083       .  S
C564        O568   1.366       .  S
O566        H570   0.992       .  S
O568        H569   0.990       .  S
C571        C572   1.416       .  A
C571        C576   1.432       .  A
C572        C573   1.403       .  A
C572        H577   1.082       .  S
C573        C574   1.408       .  A
C573        O578   1.372       .  S
C574        C575   1.379       .  A
C575        C576   1.403       .  A
C575        H579   1.085       .  S
C576        O580   1.358       .  S
O578        H582   0.995       .  S
O580        H581   0.993   1_554  S
C583        C584   1.417       .  A
C583        C588   1.399       .  A
C584        C585   1.428       .  A
C584        H589   1.082       .  S
C585        C586   1.416       .  A
C585        O590   1.371       .  S
C586        C587   1.414       .  A
C587        C588   1.386       .  A
C587        H591   1.076       .  S
C588        O592   1.374       .  S
O590        H594   0.992       .  S
O592        H593   0.992       .  S
C595        C596   1.409       .  A
C595        C600   1.422       .  A
C596        C597   1.416       .  A
C596        H601   1.077       .  S
C597        C598   1.408       .  A
C597        O602   1.370       .  S
C598        C599   1.406       .  A
C599        C600   1.398       .  A
C599        H603   1.084       .  S
C600        O604   1.370       .  S
O602        H606   0.991       .  S
O604        H605   0.991       .  S
C607        C608   1.418       .  A
C607        C612   1.413       .  A
C608        C609   1.424       .  A
C608        H613   1.082       .  S
C609        C610   1.408       .  A
C609        O614   1.368       .  S
C610        C611   1.409       .  A
C611        C612   1.393       .  A
C611        H615   1.084       .  S
C612        O616   1.374       .  S
O614        H618   0.991       .  S
O616        H617   0.995       .  S
C619        C620   1.415       .  A
C619        C624   1.414       .  A
C620        C621   1.404       .  A
C620        H625   1.064       .  S
C621        C622   1.400       .  A
C621        O626   1.371       .  S
C622        C623   1.408       .  A
C623        C624   1.415       .  A
C623        H627   1.080       .  S
C624        O628   1.370       .  S
O626        H630   0.992       .  S
O628        H629   0.993   1_556  S
C631        C632   1.406       .  A
C631        C636   1.406       .  A
C632        C633   1.412       .  A
C632        H637   1.083       .  S
C633        C634   1.412       .  A
C633        O638   1.372       .  S
C634        C635   1.411       .  A
C635        C636   1.378       .  A
C635        H639   1.082       .  S
C636        O640   1.375       .  S
O638        H642   0.991       .  S
O640        H641   0.994       .  S
C643        C644   1.408       .  A
C643        C648   1.420       .  A
C644        C645   1.394       .  A
C644        H649   1.065       .  S
C645        C646   1.406       .  A
C645        O650   1.373       .  S
C646        C647   1.412       .  A
C647        C648   1.421       .  A
C647        H651   1.083       .  S
C648        O652   1.372       .  S
O650        H654   0.992       .  S
O652        H653   0.993       .  S
C655        C656   1.406       .  A
C655        C660   1.408       .  A
C656        C657   1.394       .  A
C656        H661   1.082       .  S
C657        C658   1.411       .  A
C657        O662   1.374       .  S
C658        C659   1.425       .  A
C659        C660   1.421       .  A
C659        H663   1.082       .  S
C660        O664   1.370       .  S
O662        H666   0.991       .  S
O664        H665   0.992       .  S
C667        C668   1.401       .  A
C667        C672   1.411       .  A
C668        C669   1.414       .  A
C668        H673   1.083       .  S
C669        C670   1.418       .  A
C669        O674   1.375       .  S
C670        C671   1.410       .  A
C671        C672   1.393       .  A
C671        H675   1.080       .  S
C672        O676   1.373       .  S
O674        H678   0.991       .  S
O676        H677   0.992       .  S
C679        C680   1.399       .  A
C679        C684   1.403       .  A
C680        C681   1.394       .  A
C680        H685   1.083       .  S
C681        C682   1.421       .  A
C681        O686   1.372       .  S
C682        C683   1.430       .  A
C683        C684   1.415       .  A
C683        H687   1.080       .  S
C684        O688   1.371       .  S
O686        H690   0.994       .  S
O688        H689   0.995       .  S
C691        C692   1.403       .  A
C691        C696   1.407       .  A
C692        C693   1.411       .  A
C692        H697   1.083       .  S
C693        C694   1.423       .  A
C693        O698   1.380       .  S
C694        C695   1.417       .  A
C695        C696   1.403       .  A
C695        H699   1.080       .  S
C696        O700   1.371       .  S
O698        H702   0.995       .  S
O700        H701   0.990       .  S
C703        C704   1.414       .  A
C703        C708   1.400       .  A
C704        C705   1.423       .  A
C704        H709   1.083       .  S
C705        C706   1.412       .  A
C705        O710   1.370       .  S
C706        C707   1.418       .  A
C707        C708   1.395       .  A
C707        H711   1.076       .  S
C708        O712   1.373       .  S
O710        H714   0.992       .  S
O712        H713   0.992       .  S
C715        C716   1.406       .  A
C715        C720   1.429       .  A
C716        C717   1.422       .  A
C716        H721   1.080       .  S
C717        C718   1.414       .  A
C717        O722   1.368       .  S
C718        C719   1.389       .  A
C719        C720   1.400       .  A
C719        H723   1.084       .  S
C720        O724   1.367       .  S
O722        H726   0.991       .  S
O724        H725   0.993       .  S
C727        C728   1.408       .  A
C727        C732   1.405       .  A
C728        C729   1.406       .  A
C728        H733   1.083       .  S
C729        C730   1.417       .  A
C729        O734   1.372       .  S
C730        C731   1.410       .  A
C731        C732   1.393       .  A
C731        H735   1.072       .  S
C732        O736   1.372       .  S
O734        H738   0.990       .  S
O736        H737   0.991       .  S
C739        C740   1.404       .  A
C739        C744   1.415       .  A
C740        C741   1.415       .  A
C740        H745   1.083       .  S
C741        C742   1.419       .  A
C741        O746   1.372       .  S
C742        C743   1.404       .  A
C743        C744   1.386       .  A
C743        H747   1.076       .  S
C744        O748   1.373       .  S
O746        H750   0.991       .  S
O748        H749   0.991       .  S
C751        C752   1.398       .  A
C751        C756   1.406       .  A
C752        C753   1.378       .  A
C752        H757   1.084       .  S
C753        C754   1.418       .  A
C753        O758   1.372       .  S
C754        C755   1.414       .  A
C755        C756   1.399       .  A
C755        H759   1.084       .  S
C756        O760   1.371       .  S
O758        H762   0.993       .  S
O760        H761   0.992       .  S
C763        C764   1.401       .  A
C763        C768   1.414       .  A
C764        C765   1.408       .  A
C764        H769   1.083       .  S
C765        C766   1.426       .  A
C765        O770   1.374       .  S
C766        C767   1.412       .  A
C767        C768   1.418       .  A
C767        H771   1.078       .  S
C768        O772   1.370       .  S
O770        H774   0.994       .  S
O772        H773   0.991       .  S
C775        C776   1.422       .  A
C775        C780   1.414       .  A
C776        C777   1.404       .  A
C776        H781   1.079       .  S
C777        C778   1.399       .  A
C777        O782   1.370       .  S
C778        C779   1.412       .  A
C779        C780   1.398       .  A
C779        H783   1.084       .  S
C780        O784   1.372       .  S
O782        H786   0.990       .  S
O784        H785   0.991       .  S
C787        C788   1.417       .  A
C787        C792   1.400       .  A
C788        C789   1.427       .  A
C788        H793   1.083       .  S
C789        C790   1.421       .  A
C789        O794   1.370       .  S
C790        C791   1.398       .  A
C791        C792   1.382       .  A
C791        H795   1.060       .  S
C792        O796   1.373       .  S
O794        H798   0.993       .  S
O796        H797   0.992       .  S
C799        C800   1.413       .  A
C799        C804   1.415       .  A
C800        C801   1.428       .  A
C800        H805   1.082       .  S
C801        C802   1.426       .  A
C801        O806   1.372       .  S
C802        C803   1.397       .  A
C803        C804   1.375       .  A
C803        H807   1.075       .  S
C804        O808   1.374       .  S
O806        H810   0.992   1_545  S
O808        H809   0.993       .  S
C811        C812   1.386       .  A
C811        C816   1.408       .  A
C812        C813   1.400       .  A
C812        H817   1.081       .  S
C813        C814   1.413       .  A
C813        O818   1.365       .  S
C814        C815   1.406       .  A
C815        C816   1.392       .  A
C815        H819   1.082       .  S
C816        O820   1.374       .  S
O818        H822   0.993       .  S
O820        H821   0.994       .  S
C823        C824   1.409       .  A
C823        C828   1.411       .  A
C824        C825   1.423       .  A
C824        H829   1.082       .  S
C825        C826   1.416       .  A
C825        O830   1.368       .  S
C826        C827   1.418       .  A
C827        C828   1.417       .  A
C827        H831   1.073       .  S
C828        O832   1.368       .  S
O830        H834   0.994       .  S
O832        H833   0.989       .  S
C835        C836   1.393       .  A
C835        C840   1.406       .  A
C836        C837   1.407       .  A
C836        H841   1.081       .  S
C837        C838   1.415       .  A
C837        O842   1.371       .  S
C838        C839   1.408       .  A
C839        C840   1.396       .  A
C839        H843   1.081       .  S
C840        O844   1.369       .  S
O842        H846   0.993       .  S
O844        H845   0.990       .  S
C847        C848   1.395       .  A
C847        C852   1.407       .  A
C848        C849   1.402       .  A
C848        H853   1.084       .  S
C849        C850   1.419       .  A
C849        O854   1.368   1_556  S
C850        C851   1.408       .  A
C851        C852   1.418       .  A
C851        H855   1.078       .  S
C852        O856   1.369       .  S
O854        H858   0.990       .  S
O856        H857   0.992       .  S
C859        C860   1.396       .  A
C859        C864   1.412       .  A
C860        C861   1.409       .  A
C860        H865   1.081       .  S
C861        C862   1.413       .  A
C861        O866   1.376       .  S
C862        C863   1.402       .  A
C863        C864   1.381       .  A
C863        H867   1.081       .  S
C864        O868   1.373       .  S
O866        H870   0.995       .  S
O868        H869   0.990       .  S
C871        C872   1.410       .  A
C871        C876   1.403       .  A
C872        C873   1.411       .  A
C872        H877   1.083       .  S
C873        C874   1.417       .  A
C873        O878   1.371       .  S
C874        C875   1.408       .  A
C875        C876   1.387       .  A
C875        H879   1.073       .  S
C876        O880   1.373       .  S
O878        H882   0.993       .  S
O880        H881   0.992       .  S
C883        C884   1.404       .  A
C883        C888   1.403       .  A
C884        C885   1.400       .  A
C884        H889   1.081       .  S
C885        C886   1.402       .  A
C885        O890   1.371       .  S
C886        C887   1.409       .  A
C887        C888   1.379       .  A
C887        H891   1.077       .  S
C888        O892   1.373       .  S
O890        H894   0.993       .  S
O892        H893   0.991       .  S
C895        C896   1.415       .  A
C895        C900   1.394       .  A
C896        C897   1.425       .  A
C896        H901   1.083       .  S
C897        C898   1.411       .  A
C897        O902   1.370       .  S
C898        C899   1.434       .  A
C899        C900   1.388       .  A
C899        H903   1.077       .  S
C900        O904   1.373       .  S
O902        H906   0.990       .  S
O904        H905   0.993       .  S
C907        C908   1.405       .  A
C907        C912   1.407       .  A
C908        C909   1.395       .  A
C908        H913   1.083       .  S
C909        C910   1.419       .  A
C909        O914   1.372       .  S
C910        C911   1.416       .  A
C911        C912   1.410       .  A
C911        H915   1.081       .  S
C912        O916   1.370       .  S
O914        H918   0.992       .  S
O916        H917   0.993       .  S
C919        C920   1.397       .  A
C919        C924   1.407       .  A
C920        C921   1.393       .  A
C920        H925   1.084       .  S
C921        C922   1.427       .  A
C921        O926   1.371       .  S
C922        C923   1.416       .  A
C923        C924   1.406       .  A
C923        H927   1.081       .  S
C924        O928   1.371       .  S
O926        H930   0.992       .  S
O928        H929   0.990       .  S
C931        C932   1.416       .  A
C931        C936   1.445       .  A
C932        C933   1.430       .  A
C932        H937   1.082       .  S
C933        C934   1.417       .  A
C933        O938   1.371       .  S
C934        C935   1.381       .  A
C935        C936   1.393       .  A
C935        H939   1.085       .  S
C936        O940   1.367       .  S
O938        H942   0.992       .  S
O940        H941   0.992       .  S
