geometry optimzed in LAMMPS
_audit_creation_date              2020-11-30 
_audit_creation_method            'lammps2cif' 
_symmetry_space_group_name_H-M    'P1' 
_symmetry_Int_Tables_number       1 
_symmetry_cell_setting            triclinic 
loop_ 
_symmetry_equiv_pos_as_xyz 
  x,y,z 
_cell_length_a                    25.45817682 
_cell_length_b                    24.900545728717248 
_cell_length_c                    24.858423801105758 
_cell_angle_alpha                 90.1752589616016 
_cell_angle_beta                  89.59421827984914 
_cell_angle_gamma                 89.80801404406058 
loop_ 
_atom_site_label 
_atom_site_type_symbol 
_atom_site_fract_x 
_atom_site_fract_y 
_atom_site_fract_z 
_atom_site_charge 
C1          C  0.36507781  0.63471247  0.14634794    -0.02400
C2          C  0.59372927  0.41521204  0.11583737    -0.02400
C3          C  0.58666846  0.63742058  0.12899177    -0.02400
C4          C  0.37228618  0.40810695  0.13367368    -0.02400
O5          O  0.43662834  0.45368632  0.20663462    -0.71600
O6          O  0.53252077  0.58491490  0.20569864    -0.71900
O7          O  0.41939825  0.56896420  0.21507220    -0.71700
O8          O  0.54854939  0.47088148  0.19763294    -0.71700
O9          O  0.51197061  0.46027091  0.12310233    -0.71700
O10         O  0.44622865  0.58983477  0.13872567    -0.71700
O11         O  0.54126027  0.55706121  0.12635689    -0.71600
O12         O  0.41498840  0.49116031  0.13503979    -0.71800
V13         V  0.48450138  0.51952700  0.20957923     1.35200
V14         V  0.47835309  0.52442477  0.13158524     1.35200
C15         C  0.40628264  0.45300023  0.16501179     0.77600
C16         C  0.55582057  0.59028196  0.15943737     0.77700
C17         C  0.41294651  0.59997351  0.17360613     0.77500
C18         C  0.54938679  0.44676798  0.15128681     0.77500
C19         C  0.35454000  0.42164056  0.90908064    -0.02400
C20         C  0.57527100  0.42652429  0.88955818    -0.02400
C21         C  0.56891251  0.65134662  0.90280689    -0.02400
C22         C  0.34982709  0.64806824  0.92401949    -0.02400
O23         O  0.28141721  0.58093286  0.97392946    -0.71600
O24         O  0.29358056  0.46992594  0.09461026    -0.71900
O25         O  0.28915419  0.58549614  0.08981134    -0.71700
O26         O  0.28499113  0.46436653  0.97931671    -0.71700
O27         O  0.35761553  0.49951830  0.96099893    -0.71700
O28         O  0.36604575  0.55580597  0.09501339    -0.71700
O29         O  0.36610567  0.46032819  0.05566049    -0.71600
O30         O  0.35784381  0.59495668  0.00075625    -0.71800
V31         V  0.28424653  0.52514417  0.03460624     1.35200
V32         V  0.36092321  0.52755489  0.02815638     1.35200
C33         C  0.32363062  0.60985152  0.96949414     0.77600
C34         C  0.33779493  0.44386498  0.09225805     0.77700
C35         C  0.33459056  0.58909821  0.11269963     0.77500
C36         C  0.32634082  0.46411049  0.94873782     0.77500
O37         O  0.51235940  0.72245026  0.96197296    -0.71600
O38         O  0.42347844  0.71279066  0.09946596    -0.71900
O39         O  0.53487809  0.71536023  0.07569450    -0.71700
O40         O  0.40230787  0.71822759  0.98676149    -0.71700
O41         O  0.43322057  0.64489315  0.96260519    -0.71700
O42         O  0.50398573  0.63857133  0.08826312    -0.71700
O43         O  0.40712608  0.63911984  0.06249707    -0.71600
O44         O  0.53000348  0.64479363  0.98815519    -0.71800
V45         V  0.46823258  0.72057577  0.03109626     1.35200
V46         V  0.46876374  0.64251580  0.02554787     1.35200
C47         C  0.53909545  0.67884241  0.95359802     0.77600
C48         C  0.39682424  0.66851331  0.10104982     0.77700
C49         C  0.53934628  0.66983121  0.10029363     0.77500
C50         C  0.39741495  0.67703716  0.95547875     0.77500
O51         O  0.58219089  0.59749762  0.04412319    -0.71600
O52         O  0.57920135  0.46991102  0.97373135    -0.71900
O53         O  0.58737616  0.49912602  0.07329734    -0.71700
O54         O  0.57412131  0.56799213  0.94523556    -0.71700
O55         O  0.64853821  0.60224992  0.95440428    -0.71700
O56         O  0.65923901  0.46820435  0.04760695    -0.71700
O57         O  0.64990997  0.48835442  0.93437272    -0.71600
O58         O  0.65883464  0.58260540  0.06889291    -0.71800
V59         V  0.58135457  0.53364377  0.00900212     1.35200
V60         V  0.65746256  0.53551589  0.00112531     1.35200
C61         C  0.61536916  0.60857808  0.07795768     0.77600
C62         C  0.60731930  0.46005035  0.93441307     0.77700
C63         C  0.61993473  0.46341982  0.08074579     0.77500
C64         C  0.60321807  0.60475067  0.93101540     0.77500
O65         O  0.53493449  0.34731260  0.95090068    -0.71600
O66         O  0.41676827  0.33891670  0.06230179    -0.71900
O67         O  0.42197250  0.34617522  0.94729998    -0.71700
O68         O  0.53115294  0.34022895  0.06785057    -0.71700
O69         O  0.54198458  0.41760988  0.03811090    -0.71700
O70         O  0.40834071  0.41948815  0.98621584    -0.71700
O71         O  0.44880290  0.41349643  0.08072440    -0.71600
O72         O  0.50007463  0.42332962  0.94400277    -0.71800
V73         V  0.47639023  0.33979908  0.00699513     1.35200
V74         V  0.47491351  0.41780752  0.01232085     1.35200
C75         C  0.53409350  0.39290299  0.92579623     0.77600
C76         C  0.41530793  0.38042268  0.09377279     0.77700
C77         C  0.39336471  0.38941673  0.95006468     0.77500
C78         C  0.55793448  0.38451782  0.07097220     0.77500
O79         O  0.39388597  0.48837684  0.83306786    -0.71600
O80         O  0.51802593  0.59169954  0.82853903    -0.71900
O81         O  0.50606029  0.47670795  0.82277318    -0.71700
O82         O  0.40498772  0.60470149  0.83957019    -0.71700
O83         O  0.39655745  0.56629255  0.91362162    -0.71700
O84         O  0.52736207  0.50686189  0.89753362    -0.71700
O85         O  0.49076464  0.60270149  0.90708609    -0.71600
O86         O  0.43336593  0.46933720  0.90387429    -0.71800
V87         V  0.45540717  0.54069030  0.82745558     1.35200
V88         V  0.46184669  0.53623960  0.90504151     1.35200
C89         C  0.39588386  0.45772098  0.87512363     0.77600
C90         C  0.52308448  0.61760829  0.87347067     0.77700
C91         C  0.53797670  0.47277078  0.86310910     0.77500
C92         C  0.38124350  0.60432716  0.88608211     0.77500
C93         C  0.58276662  0.13520403  0.64572737    -0.02400
C94         C  0.58556373  0.13957727  0.41979778    -0.02400
C95         C  0.36363632  0.14092534  0.64479988    -0.02400
C96         C  0.36611936  0.14589263  0.41799828    -0.02400
O97         O  0.44416760  0.14229943  0.46593635    -0.71600
O98         O  0.50415583  0.13841611  0.59778157    -0.71900
O99         O  0.40968894  0.14155327  0.56323492    -0.71700
O100        O  0.53831918  0.13926144  0.50034590    -0.71700
O101        O  0.52595704  0.21596012  0.46853973    -0.71700
O102        O  0.42485660  0.21643319  0.59683917    -0.71700
O103        O  0.53852086  0.21343269  0.58437736    -0.71600
O104        O  0.41315877  0.21855640  0.48224468    -0.71800
V105        V  0.47408796  0.14115791  0.53183317     1.35200
V106        V  0.47577421  0.21944141  0.53314844     1.35200
C107        C  0.41031031  0.17513003  0.45358808     0.77600
C108        C  0.53984757  0.16869855  0.61107975     0.77700
C109        C  0.39722701  0.17289067  0.59938001     0.77500
C110        C  0.55165946  0.17105630  0.46518001     0.77500
C111        C  0.58326463  0.91503127  0.41477492    -0.02400
C112        C  0.36321916  0.91913341  0.41339544    -0.02400
C113        C  0.35896166  0.91418993  0.63662423    -0.02400
C114        C  0.57957118  0.91224193  0.64066430    -0.02400
O115        O  0.65790615  0.08850727  0.47981782    -0.71600
O116        O  0.65401745  0.95895828  0.57968979    -0.71900
O117        O  0.65610739  0.97432955  0.46457219    -0.71700
O118        O  0.65553550  0.07290573  0.59509936    -0.71700
O119        O  0.58225076  0.09051280  0.56245439    -0.71700
O120        O  0.58069044  0.96108437  0.49627172    -0.71700
O121        O  0.57983362  0.99301737  0.59408080    -0.71600
O122        O  0.58291213  0.05821148  0.46461450    -0.71800
V123        V  0.65906497  0.02367551  0.52981368     1.35200
V124        V  0.58227188  0.02565749  0.52934959     1.35200
C125        C  0.61495807  0.09275851  0.45240485     0.77600
C126        C  0.61042080  0.95720085  0.60684165     0.77700
C127        C  0.61237865  0.94828678  0.46101224     0.77500
C128        C  0.61302894  0.10159562  0.59859601     0.77500
O129        O  0.40563738  0.99498452  0.64077236    -0.71600
O130        O  0.53505713  0.05531025  0.64267191    -0.71900
O131        O  0.50036879  0.95939942  0.63938880    -0.71700
O132        O  0.44160797  0.09206930  0.64378146    -0.71700
O133        O  0.40737447  0.07588125  0.71868403    -0.71700
O134        O  0.52918856  0.96959797  0.71724372    -0.71700
O135        O  0.52123074  0.08508382  0.72016678    -0.71600
O136        O  0.41732204  0.95966881  0.71564910    -0.71800
V137        V  0.47040203  0.02527689  0.64259431     1.35200
V138        V  0.46874369  0.02266814  0.72116749     1.35200
C139        C  0.39152644  0.95860322  0.67090767     0.77600
C140        C  0.54839610  0.08910358  0.67580558     0.77700
C141        C  0.53356623  0.94459446  0.67172312     0.77500
C142        C  0.40667675  0.10501842  0.67552533     0.77500
O143        O  0.36537547  0.09663642  0.49865690    -0.71600
O144        O  0.36260367  0.96408603  0.55794152    -0.71900
O145        O  0.36422316  0.99997909  0.46218685    -0.71700
O146        O  0.36407423  0.06047560  0.59485026    -0.71700
O147        O  0.29072380  0.09525194  0.58027081    -0.71700
O148        O  0.28976899  0.96783425  0.47650375    -0.71700
O149        O  0.28855759  0.98027166  0.59149952    -0.71600
O150        O  0.29188932  0.08299165  0.46485503    -0.71800
V151        V  0.36342200  0.03031244  0.52843017     1.35200
V152        V  0.28692139  0.03173814  0.52824653     1.35200
C153        C  0.33490788  0.11078173  0.46327603     0.77600
C154        C  0.33061290  0.95102890  0.59263874     0.77700
C155        C  0.33300020  0.96501172  0.44867079     0.77500
C156        C  0.33338975  0.09625273  0.60853974     0.77500
O157        O  0.40954228  0.06298590  0.41614340    -0.71600
O158        O  0.53713832  0.99729869  0.41645718    -0.71900
O159        O  0.50464049  0.09514759  0.41807253    -0.71700
O160        O  0.44232996  0.96495370  0.41510415    -0.71700
O161        O  0.41055257  0.98149453  0.33934658    -0.71700
O162        O  0.53767938  0.08030486  0.34249806    -0.71700
O163        O  0.52293086  0.96553020  0.34018558    -0.71600
O164        O  0.42538228  0.09659024  0.34104242    -0.71800
V165        V  0.47331026  0.03009777  0.41572270     1.35200
V166        V  0.47421544  0.03105244  0.33735871     1.35200
C167        C  0.39818227  0.09964223  0.38526958     0.77600
C168        C  0.54990855  0.96196448  0.38421160     0.77700
C169        C  0.54022526  0.10747625  0.38706895     0.77500
C170        C  0.40765606  0.95342245  0.38304047     0.77500
O171        O  0.40664126  0.83906098  0.57548835    -0.71600
O172        O  0.53351687  0.83813769  0.47364024    -0.71900
O173        O  0.51931623  0.83699814  0.59043445    -0.71700
O174        O  0.42056300  0.84085400  0.46088125    -0.71700
O175        O  0.40781470  0.91668327  0.49484861    -0.71700
O176        O  0.53593764  0.91205676  0.55779786    -0.71700
O177        O  0.50258906  0.91455760  0.46007319    -0.71600
O178        O  0.43984717  0.91410319  0.59178105    -0.71800
V179        V  0.47012240  0.83535234  0.52500965     1.35200
V180        V  0.47165000  0.91359119  0.52621988     1.35200
C181        C  0.40416990  0.88303340  0.60333829     0.77600
C182        C  0.53738712  0.88271046  0.44684354     0.77700
C183        C  0.54717003  0.88049482  0.59386344     0.77500
C184        C  0.39474750  0.88586476  0.45879085     0.77500
C185        C  0.86664691  0.42297523  0.65654903    -0.02400
C186        C  0.85275470  0.40822589  0.42868994    -0.02400
C187        C  0.85128425  0.63352825  0.41615964    -0.02400
C188        C  0.86291422  0.64619854  0.64367261    -0.02400
O189        O  0.01090213  0.71215292  0.44925753    -0.71600
O190        O  0.91973546  0.72041255  0.58609642    -0.71900
O191        O  0.03197303  0.72024931  0.56246618    -0.71700
O192        O  0.89929604  0.71279526  0.47133735    -0.71700
O193        O  0.93211026  0.63634023  0.45923317    -0.71700
O194        O  0.00052156  0.64660080  0.58606136    -0.71700
O195        O  0.90311966  0.64356369  0.55810305    -0.71600
O196        O  0.02836224  0.63915796  0.48671702    -0.71800
V197        V  0.96529046  0.71991551  0.51715508     1.35200
V198        V  0.96603769  0.64203039  0.52258802     1.35200
C199        C  0.03826473  0.66807071  0.44791545     0.77600
C200        C  0.89261130  0.67674062  0.59339189     0.77700
C201        C  0.03632092  0.67869854  0.59336257     0.77500
C202        C  0.89622984  0.66691332  0.44678148     0.77500
O203        O  0.04363773  0.49235393  0.71382541    -0.71600
O204        O  0.91695574  0.59199841  0.71864413    -0.71900
O205        O  0.93259996  0.47699339  0.72312784    -0.71700
O206        O  0.02893591  0.60628052  0.70922814    -0.71700
O207        O  0.03807108  0.56871591  0.63423945    -0.71700
O208        O  0.91029645  0.50526906  0.64827396    -0.71700
O209        O  0.94313341  0.60184081  0.63925571    -0.71600
O210        O  0.00503716  0.47112448  0.64287857    -0.71800
V211        V  0.98053498  0.54212941  0.71963045     1.35200
V212        V  0.97440386  0.53686780  0.64173728     1.35200
C213        C  0.04196068  0.46063866  0.67259022     0.77600
C214        C  0.91041896  0.61586211  0.67289420     0.77700
C215        C  0.90128209  0.47116305  0.68261596     0.77500
C216        C  0.05250450  0.60629132  0.66292946     0.77500
O217        O  0.89592698  0.46497863  0.34820533    -0.71600
O218        O  0.02000568  0.56623611  0.33447720    -0.71900
O219        O  0.00877718  0.45190808  0.34168462    -0.71700
O220        O  0.90695176  0.57934900  0.34014028    -0.71700
O221        O  0.89795769  0.55268204  0.41937431    -0.71700
O222        O  0.02707219  0.48960475  0.41394060    -0.71700
O223        O  0.99146701  0.58755262  0.41001142    -0.71600
O224        O  0.93175683  0.45616757  0.42355732    -0.71800
V225        V  0.95771789  0.51551785  0.33786834     1.35200
V226        V  0.96220586  0.52129070  0.41596632     1.35200
C227        C  0.89555805  0.44142716  0.39453812     0.77600
C228        C  0.02457216  0.59806107  0.37548044     0.77700
C229        C  0.03849372  0.45177793  0.38384486     0.77500
C230        C  0.88292599  0.58551911  0.38599054     0.77500
O231        O  0.99581608  0.41029620  0.46688870    -0.71600
O232        O  0.94187216  0.42112736  0.60255105    -0.71900
O233        O  0.03406979  0.41859072  0.56280509    -0.71700
O234        O  0.90201088  0.41262596  0.50785544    -0.71700
O235        O  0.91555167  0.33493870  0.47949030    -0.71700
O236        O  0.02255764  0.34486109  0.60145608    -0.71700
O237        O  0.91006582  0.34385847  0.59627130    -0.71600
O238        O  0.03025696  0.33665262  0.48599743    -0.71800
V239        V  0.96845214  0.41488199  0.53489916     1.35200
V240        V  0.96950172  0.33677754  0.54084945     1.35200
C241        C  0.03108371  0.37844445  0.45490230     0.77600
C242        C  0.90909470  0.38991196  0.62094419     0.77700
C243        C  0.04859853  0.38941134  0.59966885     0.77500
C244        C  0.88783113  0.37866226  0.47493543     0.77500
O245        O  0.78289316  0.45968085  0.49449309    -0.71600
O246        O  0.78686203  0.59486636  0.58828574    -0.71900
O247        O  0.78058882  0.57387585  0.47336210    -0.71700
O248        O  0.78956294  0.48104432  0.60893412    -0.71700
O249        O  0.86177322  0.46467243  0.57150199    -0.71700
O250        O  0.85577671  0.59184949  0.50065017    -0.71700
O251        O  0.86263039  0.56379826  0.59901851    -0.71600
O252        O  0.85492084  0.49259269  0.47189503    -0.71800
V253        V  0.78167934  0.52739600  0.54143722     1.35200
V254        V  0.85803846  0.52810993  0.53577692     1.35200
C255        C  0.82383849  0.45593268  0.46323595     0.77600
C256        C  0.83157805  0.59929896  0.61255230     0.77700
C257        C  0.82290700  0.60210509  0.46612500     0.77500
C258        C  0.83334139  0.45428261  0.61042854     0.77500
C259        C  0.08352322  0.42295861  0.64158855    -0.02400
C260        C  0.07050690  0.63426007  0.40221918    -0.02400
C261        C  0.08285306  0.65036608  0.62697748    -0.02400
C262        C  0.07388959  0.40768961  0.41626994    -0.02400
O263        O  0.15441929  0.46765750  0.57222326    -0.71600
O264        O  0.14725012  0.58973780  0.46213283    -0.71900
O265        O  0.15394638  0.58421314  0.57807533    -0.71700
O266        O  0.14716863  0.47462183  0.45664735    -0.71700
O267        O  0.07486084  0.46157125  0.49474035    -0.71700
O268        O  0.07829579  0.59724947  0.54918301    -0.71700
O269        O  0.07210424  0.55648094  0.45509660    -0.71600
O270        O  0.08158796  0.50193064  0.59013111    -0.71800
V271        V  0.15389786  0.52910335  0.51709555     1.35200
V272        V  0.07745588  0.52920584  0.52240381     1.35200
C273        C  0.11316491  0.46672797  0.60317253     0.77600
C274        C  0.10243180  0.59071934  0.43756751     0.77700
C275        C  0.11131130  0.61284801  0.58144290     0.77500
C276        C  0.10454847  0.44626479  0.45854390     0.77500
C277        C  0.22768393  0.28067440  0.27679516    -0.02400
C278        C  0.71243054  0.28187006  0.27888446    -0.02400
C279        C  0.22410149  0.77610306  0.28577973    -0.02400
C280        C  0.21526964  0.27499308  0.77646562    -0.02400
C281        C  0.72430365  0.27313429  0.77914093    -0.02400
C282        C  0.71548364  0.77278977  0.27461424    -0.02400
C283        C  0.22077656  0.77852940  0.77504289    -0.02400
C284        C  0.08573382  0.14956689  0.13738987    -0.02400
C285        C  0.07664860  0.13903581  0.91389786    -0.02400
C286        C  0.86453107  0.14724021  0.14807025    -0.02400
C287        C  0.08867502  0.92262433  0.14813011    -0.02400
C288        C  0.86880322  0.92032694  0.15996882    -0.02400
O289        O  0.02954224  0.10449792  0.21790517    -0.71600
O290        O  0.93341257  0.97396458  0.22877685    -0.71900
O291        O  0.04513773  0.98940551  0.22244951    -0.71700
O292        O  0.91671150  0.08923052  0.22455941    -0.71700
O293        O  0.94532841  0.10106271  0.14688326    -0.71700
O294        O  0.00916731  0.97024205  0.14937100    -0.71700
O295        O  0.91304759  0.00321780  0.15366738    -0.71600
O296        O  0.04120830  0.06758518  0.14292453    -0.71800
V297        V  0.98124981  0.03953885  0.22682315     1.35200
V298        V  0.97723850  0.03557410  0.14882674     1.35200
C299        C  0.05467232  0.10494934  0.17235102     0.77600
C300        C  0.90302870  0.96856189  0.18745168     0.77700
C301        C  0.04577328  0.95943393  0.17969038     0.77500
C302        C  0.91151324  0.11522506  0.17959924     0.77500
C303        C  0.08013849  0.91160620  0.92221658    -0.02400
O304        O  0.15555299  0.97638865  0.96422147    -0.71600
O305        O  0.15902668  0.08556497  0.08848773    -0.71900
O306        O  0.16002525  0.96864901  0.08023576    -0.71700
O307        O  0.15470363  0.09269196  0.97213702    -0.71700
O308        O  0.08041047  0.05876908  0.96282632    -0.71700
O309        O  0.08679760  0.00246803  0.09778009    -0.71700
O310        O  0.08364740  0.09787730  0.05832140    -0.71600
O311        O  0.08340834  0.96250878  0.00194857    -0.71800
V312        V  0.16065586  0.03088666  0.02619208     1.35200
V313        V  0.08427893  0.03031386  0.03011127     1.35200
C314        C  0.11290699  0.94786730  0.96519363     0.77600
C315        C  0.11566468  0.11322301  0.09179004     0.77700
C316        C  0.11827751  0.96713816  0.11056062     0.77500
C317        C  0.11011352  0.09445167  0.94711099     0.77500
C318        C  0.85759135  0.13506708  0.92257694    -0.02400
O319        O  0.90423471  0.21354278  0.98007831    -0.71600
O320        O  0.03530893  0.21931310  0.07288739    -0.71900
O321        O  0.01554826  0.21367624  0.96024853    -0.71700
O322        O  0.92371811  0.21953279  0.09465931    -0.71700
O323        O  0.90767232  0.14257586  0.06541570    -0.71700
O324        O  0.03302054  0.13966013  0.99643982    -0.71700
O325        O  0.00421017  0.14518624  0.09495007    -0.71600
O326        O  0.93739231  0.13729897  0.96732831    -0.71800
V327        V  0.96953308  0.21994679  0.02691950     1.35200
V328        V  0.97053667  0.14179484  0.03107105     1.35200
C329        C  0.90170689  0.16804858  0.95476690     0.77600
C330        C  0.03944044  0.17761172  0.10346695     0.77700
C331        C  0.04324734  0.17002333  0.95902357     0.77500
C332        C  0.89662388  0.17589489  0.10014843     0.77500
C333        C  0.86047693  0.91186109  0.93216364    -0.02400
O334        O  0.02850301  0.84495098  0.10502754    -0.71600
O335        O  0.92392424  0.83790156  0.98095824    -0.71900
O336        O  0.03712613  0.84043032  0.99105066    -0.71700
O337        O  0.91477890  0.84288571  0.09833648    -0.71700
O338        O  0.94637105  0.91960069  0.10875713    -0.71700
O339        O  0.00241634  0.91426896  0.97365087    -0.71700
O340        O  0.90781743  0.91344721  0.01309073    -0.71600
O341        O  0.03922290  0.92030601  0.06920125    -0.71800
V342        V  0.97588818  0.83814199  0.04406447     1.35200
V343        V  0.97388530  0.91624017  0.04102444     1.35200
C344        C  0.05425974  0.88984719  0.10485603     0.77600
C345        C  0.89520554  0.88100890  0.97802591     0.77700
C346        C  0.03749201  0.88253938  0.96075895     0.77500
C347        C  0.91268979  0.88804868  0.12472143     0.77500
O348        O  0.78943890  0.09344125  0.09332459    -0.71600
O349        O  0.78876784  0.96021215  0.99688654    -0.71900
O350        O  0.79264640  0.97886588  0.11169693    -0.71700
O351        O  0.78601143  0.07431158  0.97781737    -0.71700
O352        O  0.86034622  0.09253031  0.00698515    -0.71700
O353        O  0.86645785  0.96464339  0.07658397    -0.71700
O354        O  0.86204236  0.99369513  0.97798066    -0.71600
O355        O  0.86503025  0.06327635  0.10596301    -0.71800
V356        V  0.78601879  0.02672505  0.04516958     1.35200
V357        V  0.86263338  0.02850936  0.04188373     1.35200
C358        C  0.83368079  0.09884384  0.11839425     0.77600
C359        C  0.83107279  0.95731854  0.96775392     0.77700
C360        C  0.83671036  0.95262255  0.11390158     0.77500
C361        C  0.82826810  0.10284239  0.97166561     0.77500
O362        O  0.02892297  0.07223277  0.84263513    -0.71600
O363        O  0.90599172  0.96788225  0.85246805    -0.71900
O364        O  0.91521326  0.08298668  0.84673435    -0.71700
O365        O  0.01787995  0.95670610  0.84799038    -0.71700
O366        O  0.03382587  0.99301103  0.92219441    -0.71700
O367        O  0.90445699  0.05457454  0.92520821    -0.71700
O368        O  0.93923742  0.95892647  0.92889344    -0.71600
O369        O  0.99830805  0.09029937  0.91862158    -0.71800
V370        V  0.96686740  0.01992095  0.84425930     1.35200
V371        V  0.96918651  0.02414936  0.92281237     1.35200
C372        C  0.03195716  0.10240542  0.88515891     0.77600
C373        C  0.90435490  0.94392771  0.89868508     0.77700
C374        C  0.89010485  0.08798022  0.89215345     0.77500
C375        C  0.04577432  0.95613273  0.89128878     0.77500
C376        C  0.72480814  0.78449232  0.78107456    -0.02400
C377        C  0.76557168  0.87346842  0.81708142    -0.05600
C378        C  0.76308776  0.81682472  0.81969764     0.00300
C379        C  0.79802696  0.79195603  0.85830843    -0.08300
C380        C  0.82666170  0.82486130  0.89413517    -0.05700
C381        C  0.82443094  0.88100873  0.89383151     0.00300
C382        C  0.79270140  0.90603426  0.85380860    -0.08200
C383        C  0.78265719  0.96624438  0.84616387     0.62200
H384        H  0.74696307  0.89424717  0.78489465     0.12900
H385        H  0.85258927  0.80616187  0.92247993     0.12900
C386        C  0.81007761  0.73166175  0.86184492     0.62400
F387        F  0.73028651  0.97658211  0.85727313    -0.22800
F388        F  0.79322603  0.98001302  0.79328036    -0.20100
F389        F  0.81136362  0.00038085  0.87745789    -0.19800
F390        F  0.76528420  0.70099939  0.86206103    -0.19800
F391        F  0.83644204  0.71846442  0.90856812    -0.20100
F392        F  0.84245060  0.71669745  0.81955446    -0.22800
C393        C  0.14302070  0.79463832  0.83839944    -0.05600
C394        C  0.18486971  0.81956027  0.81015706     0.00300
C395        C  0.19215319  0.87640382  0.82246125    -0.08300
C396        C  0.15536941  0.90251175  0.85711773    -0.05700
C397        C  0.11328925  0.87673330  0.88274217     0.00300
C398        C  0.10454800  0.82198826  0.86876103    -0.08200
C399        C  0.05388182  0.79117916  0.87921496     0.62200
H400        H  0.13838764  0.75199672  0.83402697     0.12900
H401        H  0.15892921  0.94506392  0.86483567     0.12900
C402        C  0.23806500  0.91219032  0.80463180     0.62400
F403        F  0.04636554  0.75187659  0.84050117    -0.22800
F404        F  0.01039388  0.82443908  0.87674914    -0.20100
F405        F  0.05652346  0.76533698  0.92815151    -0.19800
F406        F  0.23300629  0.92637200  0.75143547    -0.19800
F407        F  0.28573058  0.88804457  0.81363712    -0.20100
F408        F  0.23996924  0.95995401  0.83333531    -0.22800
C409        C  0.78847856  0.84140304  0.27017166    -0.05600
C410        C  0.75616529  0.80704298  0.23891861     0.00300
C411        C  0.76628307  0.80812836  0.18136930    -0.08300
C412        C  0.80189780  0.84688551  0.16069737    -0.05700
C413        C  0.83183449  0.88212769  0.19238743     0.00300
C414        C  0.82564947  0.87777784  0.24929079    -0.08200
C415        C  0.85804764  0.90870413  0.28980286     0.62200
H416        H  0.78471157  0.83845878  0.31329632     0.12900
H417        H  0.80836193  0.84934503  0.11777504     0.12900
C418        C  0.74662855  0.76755475  0.13981396     0.62400
F419        F  0.84504788  0.89670944  0.34262539    -0.22800
F420        F  0.84956813  0.96316500  0.28368664    -0.20100
F421        F  0.91033007  0.89501913  0.28317865    -0.19800
F422        F  0.69273328  0.76497965  0.13886074    -0.19800
F423        F  0.76860728  0.71798503  0.15007110    -0.20100
F424        F  0.76163561  0.78032010  0.08772454    -0.22800
C425        C  0.81325833  0.23550822  0.81269819    -0.05600
C426        C  0.75757122  0.23478419  0.81667218     0.00300
C427        C  0.73571859  0.19632963  0.85408939    -0.08300
C428        C  0.77010231  0.16650328  0.88707221    -0.05700
C429        C  0.82506813  0.17003014  0.88431232     0.00300
C430        C  0.84717818  0.20493326  0.84481383    -0.08200
C431        C  0.90550638  0.21499814  0.83318764     0.62200
H432        H  0.83244014  0.25962217  0.78272612     0.12900
H433        H  0.75337920  0.13808746  0.91453010     0.12900
C434        C  0.67749928  0.18115067  0.85840506     0.62400
F435        F  0.91526067  0.20758248  0.77880366    -0.22800
F436        F  0.94033410  0.18277621  0.85991494    -0.20100
F437        F  0.91691738  0.26773461  0.84624114    -0.19800
F438        F  0.66370436  0.14957114  0.81501251    -0.19800
F439        F  0.64543764  0.22553639  0.86141935    -0.20100
F440        F  0.66665680  0.15141793  0.90414643    -0.22800
C441        C  0.17004450  0.25176437  0.86658860    -0.05600
C442        C  0.17175421  0.24433175  0.81020108     0.00300
C443        C  0.12933626  0.21287245  0.78814134    -0.08300
C444        C  0.09891365  0.18109863  0.82371293    -0.05700
C445        C  0.10778004  0.17918785  0.87957906     0.00300
C446        C  0.14205578  0.21857488  0.90190061    -0.08200
C447        C  0.14465205  0.23439921  0.96149348     0.62200
H448        H  0.19023441  0.28506358  0.88444148     0.12900
H449        H  0.06776978  0.15716116  0.80712641     0.12900
C450        C  0.11197479  0.21247635  0.72914759     0.62400
F451        F  0.10485826  0.27063883  0.97296334    -0.22800
F452        F  0.19184230  0.25909963  0.97338691    -0.20100
F453        F  0.14075733  0.19146620  0.99581577    -0.19800
F454        F  0.15288013  0.21845336  0.69320717    -0.19800
F455        F  0.07587467  0.25302524  0.72110036    -0.20100
F456        F  0.08741437  0.16466053  0.71603148    -0.22800
C457        C  0.13398656  0.81250361  0.24881669    -0.05600
C458        C  0.18988611  0.81433082  0.24692982     0.00300
C459        C  0.21142824  0.85465739  0.21108215    -0.08300
C460        C  0.17689803  0.88880739  0.18218820    -0.05700
C461        C  0.12175739  0.88510998  0.18416852     0.00300
C462        C  0.09994983  0.84556461  0.21912789    -0.08200
C463        C  0.04160243  0.83490939  0.23033588     0.62200
H464        H  0.11406244  0.78724961  0.27742149     0.12900
H465        H  0.19399812  0.92039394  0.15840513     0.12900
C466        C  0.26955671  0.86960399  0.20607712     0.62400
F467        F  0.03168859  0.84182625  0.28473881    -0.22800
F468        F  0.03051438  0.78219533  0.21683220    -0.20100
F469        F  0.00659896  0.86689369  0.20358931    -0.19800
F470        F  0.30311382  0.82679814  0.21168787    -0.19800
F471        F  0.28130462  0.90824230  0.24412948    -0.20100
F472        F  0.28050712  0.89091250  0.15583995    -0.22800
C473        C  0.82492017  0.17886998  0.23593180    -0.05600
C474        C  0.82743099  0.18490663  0.17997607     0.00300
C475        C  0.79074853  0.22072690  0.15565761    -0.08300
C476        C  0.75324470  0.24663245  0.18854574    -0.05700
C477        C  0.75164773  0.24355541  0.24552603     0.00300
C478        C  0.78839377  0.20587730  0.26948380    -0.08200
C479        C  0.78846760  0.18795551  0.32868149     0.62200
H480        H  0.85054279  0.14988772  0.25384922     0.12900
H481        H  0.72375906  0.26901470  0.16796711     0.12900
C482        C  0.79187660  0.23661157  0.09605222     0.62400
F483        F  0.74720607  0.15332570  0.33793130    -0.22800
F484        F  0.78572975  0.23028230  0.36413072    -0.20100
F485        F  0.83387064  0.16026637  0.34186995    -0.19800
F486        F  0.74827322  0.26645349  0.08135359    -0.19800
F487        F  0.79322405  0.19239646  0.06268833    -0.20100
F488        F  0.83505713  0.26848988  0.08609406    -0.22800
C489        C  0.16237025  0.26871891  0.20113138    -0.05600
C490        C  0.19858127  0.24240203  0.23489682     0.00300
C491        C  0.20365372  0.18496203  0.22588502    -0.08300
C492        C  0.16395759  0.15856846  0.19644100    -0.05700
C493        C  0.12222102  0.18529768  0.17146840     0.00300
C494        C  0.11951076  0.24225735  0.17782474    -0.08200
C495        C  0.07023324  0.27662738  0.17126749     0.62200
H496        H  0.16192776  0.31191451  0.20097162     0.12900
H497        H  0.16588151  0.11524903  0.19213206     0.12900
C498        C  0.24864383  0.14706127  0.24139095     0.62400
F499        F  0.06945596  0.31874469  0.20783223    -0.22800
F500        F  0.02510346  0.24756091  0.18139581    -0.20100
F501        F  0.06945433  0.29929268  0.12068274    -0.19800
F502        F  0.23361712  0.11644996  0.28511386    -0.19800
F503        F  0.29554487  0.17148487  0.25199472    -0.20100
F504        F  0.25939704  0.11226666  0.19904634    -0.22800
C505        C  0.13358789  0.30396384  0.31261145    -0.05600
C506        C  0.18865921  0.31286821  0.31553629     0.00300
C507        C  0.20495026  0.34811935  0.35833746    -0.08300
C508        C  0.16627708  0.37371018  0.39060370    -0.05700
C509        C  0.11153188  0.37035946  0.38220628     0.00300
C510        C  0.09533960  0.33092589  0.34414507    -0.08200
C511        C  0.03862752  0.31341347  0.33765471     0.62200
H512        H  0.11930986  0.27291072  0.28719098     0.12900
H513        H  0.18012276  0.39438979  0.42541896     0.12900
C514        C  0.26191305  0.35718784  0.37579091     0.62400
F515        F  0.03267001  0.27153213  0.30143819    -0.22800
F516        F  0.00957141  0.35552070  0.31861034    -0.20100
F517        F  0.01879636  0.29546598  0.38601008    -0.19800
F518        F  0.29506119  0.36544409  0.33279707    -0.19800
F519        F  0.27900497  0.31395888  0.40567248    -0.20100
F520        F  0.26680779  0.40236791  0.40802444    -0.22800
C521        C  0.13344590  0.76108016  0.72429686    -0.05600
C522        C  0.18704581  0.74682805  0.73145522     0.00300
C523        C  0.20752666  0.70772737  0.69370686    -0.08300
C524        C  0.17205877  0.67961131  0.66062216    -0.05700
C525        C  0.11754468  0.68850959  0.66052621     0.00300
C526        C  0.09780113  0.73133650  0.69315867    -0.08200
C527        C  0.04065184  0.75050323  0.69346567     0.62200
H528        H  0.11873124  0.79771903  0.74185202     0.12900
H529        H  0.18777147  0.64960643  0.63425030     0.12900
C530        C  0.26593729  0.69567129  0.68385479     0.62400
F531        F  0.02977294  0.78368855  0.73694395    -0.22800
F532        F  0.00595027  0.70826524  0.69684269    -0.20100
F533        F  0.03096983  0.77991486  0.64762949    -0.19800
F534        F  0.29088945  0.68281829  0.73054199    -0.19800
F535        F  0.29028152  0.73886916  0.65992546    -0.20100
F536        F  0.27393847  0.65229303  0.64972510    -0.22800
C537        C  0.15686654  0.70361783  0.29207584    -0.05600
C538        C  0.18736516  0.74011874  0.32262821     0.00300
C539        C  0.18028432  0.73761066  0.38078541    -0.08300
C540        C  0.14005567  0.70411997  0.40109255    -0.05700
C541        C  0.10840062  0.67037988  0.36957479     0.00300
C542        C  0.11673945  0.67120215  0.31290995    -0.08200
C543        C  0.08548119  0.63894528  0.27246992     0.62200
H544        H  0.16294236  0.70337731  0.24907178     0.12900
H545        H  0.13339637  0.70341062  0.44417900     0.12900
C546        C  0.20994707  0.76627528  0.42661361     0.62400
F547        F  0.09789762  0.65140058  0.21960928    -0.22800
F548        F  0.03254577  0.65001602  0.27862501    -0.20100
F549        F  0.09682426  0.58508468  0.27889422    -0.19800
F550        F  0.18080236  0.80967119  0.44482073    -0.19800
F551        F  0.25981766  0.78294420  0.41514894    -0.20100
F552        F  0.21603092  0.73166508  0.46974154    -0.22800
C553        C  0.13995521  0.33910179  0.75929823    -0.05600
C554        C  0.18408899  0.31284573  0.73588997     0.00300
C555        C  0.19647529  0.32834816  0.68105640    -0.08300
C556        C  0.16145528  0.36286588  0.65346664    -0.05700
C557        C  0.11645593  0.38541199  0.67705472     0.00300
C558        C  0.10322476  0.36898949  0.73035478    -0.08200
C559        C  0.04951311  0.37537174  0.75747857     0.62200
H560        H  0.13232401  0.33437099  0.80186350     0.12900
H561        H  0.16917441  0.37341808  0.61207758     0.12900
C562        C  0.24737377  0.31553168  0.65111509     0.62400
F563        F  0.04033199  0.33417101  0.79371504    -0.22800
F564        F  0.00922263  0.37277160  0.72065102    -0.20100
F565        F  0.04748952  0.42280883  0.78631356    -0.19800
F566        F  0.25265089  0.26110904  0.64304620    -0.19800
F567        F  0.28909253  0.33653033  0.67916489    -0.20100
F568        F  0.24965038  0.33855914  0.60045999    -0.22800
C569        C  0.83939264  0.73338705  0.68740164    -0.05600
C570        C  0.82957908  0.67848679  0.68397841     0.00300
C571        C  0.79113776  0.65646921  0.71987678    -0.08300
C572        C  0.75905084  0.69179772  0.75010595    -0.05700
C573        C  0.76393758  0.74824261  0.74819107     0.00300
C574        C  0.80757540  0.76927326  0.71692398    -0.08200
C575        C  0.82221444  0.82865549  0.71082396     0.62200
H576        H  0.87305380  0.74876340  0.66613843     0.12900
H577        H  0.72859536  0.67413612  0.77463195     0.12900
C578        C  0.77965054  0.59696950  0.72827398     0.62400
F579        F  0.84965784  0.84565020  0.75541405    -0.22800
F580        F  0.77881782  0.86050923  0.70247486    -0.20100
F581        F  0.85460885  0.83738850  0.66670574    -0.19800
F582        F  0.77285993  0.58688702  0.78264496    -0.19800
F583        F  0.81889354  0.56301556  0.71086354    -0.20100
F584        F  0.73370013  0.58395090  0.70201436    -0.22800
C585        C  0.76294892  0.66917167  0.38684544    -0.05600
C586        C  0.81754352  0.66806463  0.37849334     0.00300
C587        C  0.83774172  0.69706972  0.33359578    -0.08300
C588        C  0.80254882  0.72497171  0.30064068    -0.05700
C589        C  0.74806964  0.73155994  0.31161183     0.00300
C590        C  0.72720532  0.69637084  0.35308065    -0.08200
C591        C  0.66894770  0.68434513  0.36485362     0.62200
H592        H  0.74733703  0.64824636  0.42107759     0.12900
H593        H  0.81965201  0.74160877  0.26458663     0.12900
C594        C  0.89520678  0.70238969  0.31597254     0.62400
F595        F  0.66311366  0.63833801  0.39555401    -0.22800
F596        F  0.64095505  0.67432813  0.31900102    -0.20100
F597        F  0.64570739  0.72523798  0.39378327    -0.19800
F598        F  0.93162126  0.68174298  0.35069135    -0.19800
F599        F  0.90694362  0.75632045  0.30971784    -0.20100
F600        F  0.90195978  0.67706301  0.26679902    -0.22800
C601        C  0.76291913  0.38579115  0.38910432    -0.05600
C602        C  0.81735409  0.37492215  0.39014509     0.00300
C603        C  0.83723348  0.34201453  0.34748576    -0.08300
C604        C  0.80268105  0.32183492  0.30848562    -0.05700
C605        C  0.74723772  0.32364815  0.31336554     0.00300
C606        C  0.72820567  0.36462495  0.34991808    -0.08200
C607        C  0.67300442  0.38890477  0.34858920     0.62200
H608        H  0.74684805  0.41263925  0.41878085     0.12900
H609        H  0.82094673  0.30231422  0.27438039     0.12900
C610        C  0.89415052  0.32642989  0.33790942     0.62400
F611        F  0.66757243  0.43199391  0.38359278    -0.22800
F612        F  0.63598925  0.35185769  0.36345813    -0.20100
F613        F  0.66198811  0.40867261  0.29820157    -0.19800
F614        F  0.92720154  0.34198193  0.37808558    -0.19800
F615        F  0.91098979  0.34912660  0.29010055    -0.20100
F616        F  0.89815926  0.27112302  0.33351445    -0.22800
C617        C  0.79902011  0.35130144  0.66101406    -0.05600
C618        C  0.83150452  0.38562595  0.69093975     0.00300
C619        C  0.82728686  0.38298597  0.74812082    -0.08300
C620        C  0.79114020  0.34717230  0.77080700    -0.05700
C621        C  0.75943712  0.31097297  0.74168129     0.00300
C622        C  0.75978972  0.31823153  0.68381757    -0.08200
C623        C  0.71996330  0.29747129  0.64258963     0.62200
H624        H  0.80294807  0.35246411  0.61760808     0.12900
H625        H  0.78796223  0.34603848  0.81359256     0.12900
C626        C  0.86129730  0.41385332  0.78744626     0.62400
F627        F  0.71672283  0.33201946  0.59906029    -0.22800
F628        F  0.66955226  0.29479876  0.66231531    -0.20100
F629        F  0.73566041  0.24818560  0.62259301    -0.19800
F630        F  0.85283502  0.46835007  0.78170961    -0.19800
F631        F  0.91322226  0.39958921  0.77924131    -0.20100
F632        F  0.85022057  0.40214253  0.84079540    -0.22800
C633        C  0.63652256  0.83223354  0.65681367    -0.05600
C634        C  0.61712979  0.88077525  0.67645684     0.00300
C635        C  0.63639345  0.89893112  0.72664167    -0.08300
C636        C  0.66175808  0.86172630  0.75964098    -0.05700
C637        C  0.68981034  0.81717592  0.73875883     0.00300
C638        C  0.67483679  0.80119750  0.68370060    -0.08200
C639        C  0.69503364  0.75325826  0.64941935     0.62200
H640        H  0.62361683  0.82079770  0.61725287     0.12900
H641        H  0.66501748  0.87206484  0.80143504     0.12900
C642        C  0.63727939  0.95687644  0.74643532     0.62400
F643        F  0.66751038  0.74659961  0.60196419    -0.22800
F644        F  0.68996245  0.70479756  0.67505296    -0.20100
F645        F  0.74605754  0.76168837  0.63346180    -0.19800
F646        F  0.60339909  0.96304153  0.78976747    -0.19800
F647        F  0.62565643  0.99404695  0.70737756    -0.20100
F648        F  0.68728601  0.96922387  0.76321217    -0.22800
C649        C  0.34740560  0.84988828  0.71170510    -0.05600
C650        C  0.32430132  0.87550448  0.66819335     0.00300
C651        C  0.27199990  0.86150215  0.65555357    -0.08300
C652        C  0.24162375  0.83705901  0.69557314    -0.05700
C653        C  0.26343196  0.80989669  0.74057292     0.00300
C654        C  0.32083514  0.81211551  0.74418389    -0.08200
C655        C  0.35846671  0.78326602  0.78235409     0.62200
H656        H  0.38839330  0.85862846  0.71901696     0.12900
H657        H  0.19970913  0.83643073  0.68887711     0.12900
C658        C  0.24855143  0.86215411  0.59935411     0.62400
F659        F  0.40861435  0.77978700  0.76036773    -0.22800
F660        F  0.34513599  0.73112760  0.79260679    -0.20100
F661        F  0.36272424  0.81241781  0.82933943    -0.19800
F662        F  0.28674749  0.86129061  0.55956180    -0.19800
F663        F  0.21621041  0.90636743  0.59345150    -0.20100
F664        F  0.21843102  0.81656467  0.59150795    -0.22800
C665        C  0.27612484  0.89689486  0.37194341    -0.05600
C666        C  0.32989901  0.88479592  0.37604804     0.00300
C667        C  0.34979905  0.84052178  0.34594682    -0.08300
C668        C  0.31420536  0.80798986  0.31846933    -0.05700
C669        C  0.25906982  0.81609052  0.31822978     0.00300
C670        C  0.23976998  0.86360982  0.34569574    -0.08200
C671        C  0.18265681  0.88356632  0.34754078     0.62200
H672        H  0.26179404  0.93396588  0.38890220     0.12900
H673        H  0.33179059  0.77589139  0.29590934     0.12900
C674        C  0.40726421  0.82311532  0.33988050     0.62400
F675        F  0.17360260  0.91698648  0.39134141    -0.22800
F676        F  0.14716479  0.84241657  0.35253235    -0.20100
F677        F  0.17184879  0.91313768  0.30205194    -0.19800
F678        F  0.41425804  0.77476201  0.36619442    -0.19800
F679        F  0.44357011  0.85888120  0.35904328    -0.20100
F680        F  0.41889608  0.81544983  0.28588837    -0.22800
C681        C  0.69312137  0.81724425  0.36628860    -0.05600
C682        C  0.68653759  0.81707394  0.30981109     0.00300
C683        C  0.65676329  0.86148006  0.28888702    -0.08300
C684        C  0.62438448  0.89106448  0.32461290    -0.05700
C685        C  0.62214070  0.88172418  0.38044973    -0.01300
C686        C  0.65998365  0.84544679  0.40215991    -0.08200
C687        C  0.67274951  0.83942954  0.46193331     0.62200
H688        H  0.72478784  0.79461631  0.38371195     0.12900
H689        H  0.60138152  0.92308879  0.30821819     0.12900
C690        C  0.66038072  0.88214510  0.23099396     0.62400
F691        F  0.69380061  0.78917712  0.47242348    -0.22800
F692        F  0.62968396  0.84474404  0.49509731    -0.20100
F693        F  0.70954921  0.87746481  0.47611792    -0.19800
F694        F  0.62192458  0.91990033  0.21981264    -0.19800
F695        F  0.65448906  0.84162360  0.19406682    -0.20100
F696        F  0.70811494  0.90704788  0.22291774    -0.22800
C697        C  0.31843676  0.25499783  0.31745485    -0.05600
C698        C  0.26298160  0.24706779  0.31655253     0.00300
C699        C  0.24244493  0.20909863  0.35501486    -0.08300
C700        C  0.27788132  0.17933530  0.38612349    -0.05700
C701        C  0.33269526  0.18397810  0.38312552     0.00300
C702        C  0.35355596  0.22424846  0.34854475    -0.08200
C703        C  0.41110742  0.24173187  0.34842945     0.62200
H704        H  0.33546094  0.28744828  0.29517173     0.12900
H705        H  0.26135204  0.15252606  0.41495524     0.12900
C706        C  0.18414888  0.20043072  0.36890916     0.62400
F707        F  0.42387499  0.27062619  0.30270161    -0.22800
F708        F  0.44519993  0.19873236  0.34994604    -0.20100
F709        F  0.41986375  0.27472326  0.39220356    -0.19800
F710        F  0.17587142  0.15482056  0.39957591    -0.19800
F711        F  0.15397864  0.19352370  0.32389306    -0.20100
F712        F  0.16573042  0.24306705  0.39929659    -0.22800
C713        C  0.27596775  0.15740791  0.69000186    -0.05600
C714        C  0.32807503  0.17435410  0.68250744     0.00300
C715        C  0.34486625  0.21782945  0.71556860    -0.08300
C716        C  0.30655428  0.24984879  0.74031027    -0.05700
C717        C  0.25406326  0.23305689  0.74848287     0.00300
C718        C  0.24471908  0.17789722  0.73199994    -0.08200
C719        C  0.21715169  0.13150493  0.76173101     0.62200
H720        H  0.26291547  0.12043119  0.67181976     0.12900
H721        H  0.31941316  0.28842679  0.75452490     0.12900
C722        C  0.40104658  0.22847520  0.73176877     0.62400
F723        F  0.25193628  0.08873026  0.76633201    -0.22800
F724        F  0.17510664  0.11349259  0.73203548    -0.20100
F725        F  0.20114181  0.14169670  0.81341562    -0.19800
F726        F  0.43018541  0.24553959  0.68872224    -0.19800
F727        F  0.42155525  0.18235664  0.75393342    -0.20100
F728        F  0.40499765  0.26816159  0.77075662    -0.22800
C729        C  0.62703892  0.16249217  0.33124799    -0.05600
C730        C  0.62259272  0.17391473  0.38637346     0.00300
C731        C  0.65386253  0.21578116  0.40755097    -0.08300
C732        C  0.68038652  0.24914035  0.37139709    -0.05700
C733        C  0.68044212  0.24218569  0.31466987     0.00300
C734        C  0.65365153  0.19531926  0.29437491    -0.08200
C735        C  0.65499604  0.17419258  0.23620148     0.62200
H736        H  0.61176436  0.12523343  0.31662088     0.12900
H737        H  0.70326241  0.27993835  0.38996575     0.12900
C738        C  0.66307716  0.22847696  0.46697700     0.62400
F739        F  0.61402252  0.13905702  0.22636033    -0.22800
F740        F  0.70103237  0.14605683  0.22687269    -0.20100
F741        F  0.64996683  0.21443685  0.19892551    -0.19800
F742        F  0.64513407  0.19039483  0.50243179    -0.19800
F743        F  0.63937647  0.27702786  0.47951206    -0.20100
F744        F  0.71652401  0.23311330  0.47581502    -0.22800
C745        C  0.67220520  0.16023577  0.68263445    -0.05600
C746        C  0.61758177  0.16885422  0.68345487     0.00300
C747        C  0.59809367  0.20724499  0.72098891    -0.08300
C748        C  0.63348875  0.23854877  0.75011442    -0.05700
C749        C  0.68886819  0.23397692  0.74574597     0.00300
C750        C  0.70831900  0.19045248  0.71279963    -0.08200
C751        C  0.76564277  0.17137543  0.70984448     0.62200
H752        H  0.68756993  0.12738546  0.65989225     0.12900
H753        H  0.61564933  0.26600572  0.77831578     0.12900
C754        C  0.54101232  0.21841792  0.73424492     0.62400
F755        F  0.77774429  0.14272209  0.75561358    -0.22800
F756        F  0.79995392  0.21343187  0.70342968    -0.20100
F757        F  0.77481428  0.13733216  0.66655406    -0.19800
F758        F  0.50715704  0.18564959  0.70775021    -0.19800
F759        F  0.52929193  0.27109589  0.72127825    -0.20100
F760        F  0.53251397  0.21117415  0.78881568    -0.22800
C761        C  0.27589527  0.65583172  0.85876609    -0.05600
C762        C  0.30931666  0.68346623  0.89400563     0.00300
C763        C  0.30013568  0.74031277  0.89940565    -0.08300
C764        C  0.26947462  0.76597450  0.86081079    -0.05700
C765        C  0.24350594  0.73955594  0.81907877     0.00300
C766        C  0.23866462  0.68203910  0.82590167    -0.08200
C767        C  0.19537164  0.64474506  0.80569772     0.62200
H768        H  0.27730826  0.61229516  0.85858703     0.12900
H769        H  0.26853764  0.80903823  0.86116473     0.12900
C770        C  0.32037628  0.77745419  0.94302392     0.62400
F771        F  0.18145414  0.60942727  0.84635008    -0.22800
F772        F  0.21353713  0.61451062  0.76270143    -0.20100
F773        F  0.14966654  0.67042808  0.79192058    -0.19800
F774        F  0.37191699  0.79134675  0.93237455    -0.19800
F775        F  0.31410659  0.75365279  0.99219039    -0.20100
F776        F  0.29225918  0.82519087  0.94633420    -0.22800
C777        C  0.64149452  0.71801385  0.89908544    -0.05600
C778        C  0.60260221  0.69074846  0.87052290     0.00300
C779        C  0.59823504  0.70256718  0.81499926    -0.08300
C780        C  0.64140708  0.72650740  0.78926932    -0.05700
C781        C  0.68117431  0.75498570  0.81699936     0.00300
C782        C  0.67274639  0.75787385  0.87488794    -0.08200
C783        C  0.68463388  0.80419038  0.91353853     0.62200
H784        H  0.64241958  0.71348671  0.94246612     0.12900
H785        H  0.63984024  0.72783939  0.74651339     0.12900
C786        C  0.54781203  0.69993146  0.78268522     0.62400
F787        F  0.64312437  0.81127493  0.94937192    -0.22800
F788        F  0.68983085  0.85281089  0.88851038    -0.20100
F789        F  0.72854929  0.79271097  0.94367613    -0.19800
F790        F  0.54714400  0.65355861  0.75206425    -0.19800
F791        F  0.54499302  0.74319473  0.74784272    -0.20100
F792        F  0.50368332  0.70337008  0.81522534    -0.22800
C793        C  0.64559648  0.35658899  0.88973442    -0.05600
C794        C  0.61381362  0.38996066  0.85762599     0.00300
C795        C  0.62416184  0.38975364  0.80124798    -0.08300
C796        C  0.66100471  0.35263903  0.78062246    -0.05700
C797        C  0.69081861  0.31651424  0.81234627     0.00300
C798        C  0.68827000  0.32622567  0.86948119    -0.08200
C799        C  0.72905483  0.31262941  0.91246105     0.62200
H800        H  0.64013780  0.35829515  0.93304240     0.12900
H801        H  0.66560338  0.35007692  0.73777204     0.12900
C802        C  0.59680546  0.42587308  0.76106418     0.62400
F803        F  0.73518705  0.35652702  0.94625468    -0.22800
F804        F  0.77855843  0.30177164  0.89325743    -0.20100
F805        F  0.71173812  0.27005704  0.94327338    -0.19800
F806        F  0.60220093  0.47904501  0.77598539    -0.19800
F807        F  0.54464347  0.41138829  0.75768213    -0.20100
F808        F  0.61793234  0.42129370  0.70969892    -0.22800
C809        C  0.31566415  0.33152241  0.88506906    -0.05600
C810        C  0.31605188  0.38706149  0.87592258     0.00300
C811        C  0.28059323  0.40695779  0.83654399    -0.08300
C812        C  0.25062965  0.37012731  0.80625699    -0.05700
C813        C  0.25004300  0.31339273  0.81464459     0.00300
C814        C  0.28531397  0.29458770  0.85600359    -0.08200
C815        C  0.29630199  0.23682010  0.87285027     0.62200
H816        H  0.33956223  0.31505570  0.91652209     0.12900
H817        H  0.22760326  0.38819655  0.77498519     0.12900
C818        C  0.27039606  0.46592171  0.82326418     0.62400
F819        F  0.34832001  0.22451460  0.86187914    -0.22800
F820        F  0.26639940  0.19933312  0.84813117    -0.20100
F821        F  0.28774875  0.23152415  0.92761518    -0.19800
F822        F  0.28578000  0.47564461  0.77070427    -0.19800
F823        F  0.29535252  0.50222566  0.85585088    -0.20100
F824        F  0.21707851  0.47621010  0.82787957    -0.22800
C825        C  0.29773376  0.40196545  0.19961361    -0.05600
C826        C  0.33766511  0.37404775  0.17171904     0.00300
C827        C  0.33965420  0.31745538  0.17830452    -0.08300
C828        C  0.29793924  0.29206439  0.20501046    -0.05700
C829        C  0.26057218  0.31905745  0.23777402     0.00300
C830        C  0.25726505  0.37660326  0.22955400    -0.08200
C831        C  0.21281436  0.41493330  0.24656711     0.62200
H832        H  0.29733988  0.44534435  0.19633387     0.12900
H833        H  0.29783983  0.24902638  0.20457094     0.12900
C834        C  0.38666440  0.28190047  0.16483582     0.62400
F835        F  0.22539270  0.44029265  0.29424061    -0.22800
F836        F  0.16459964  0.39089151  0.25110277    -0.20100
F837        F  0.20609879  0.45452880  0.20809949    -0.19800
F838        F  0.43339859  0.30939918  0.17016601    -0.19800
F839        F  0.38140109  0.26091547  0.11369675    -0.20100
F840        F  0.38964071  0.23888343  0.19994350    -0.22800
C841        C  0.69703896  0.68770209  0.22116612    -0.05600
C842        C  0.67637959  0.73679500  0.24161588     0.00300
C843        C  0.62067320  0.74428377  0.23279087    -0.08300
C844        C  0.59804445  0.71716203  0.18922428    -0.05700
C845        C  0.61994234  0.66977520  0.16791810     0.00300
C846        C  0.66762194  0.65130282  0.19075687    -0.08200
C847        C  0.68969258  0.59453152  0.18729099     0.62200
H848        H  0.73658927  0.67545862  0.23096027     0.12900
H849        H  0.55852482  0.72857152  0.17827620     0.12900
C850        C  0.57897756  0.76833725  0.27066246     0.62400
F851        F  0.70699570  0.57893470  0.23761690    -0.22800
F852        F  0.73192654  0.59348231  0.15207498    -0.20100
F853        F  0.65347816  0.55684197  0.17171322    -0.19800
F854        F  0.56103402  0.81674377  0.25078689    -0.19800
F855        F  0.59510154  0.77438361  0.32271674    -0.20100
F856        F  0.53623659  0.73401294  0.27382536    -0.22800
C857        C  0.59941953  0.34304086  0.18537020    -0.05600
C858        C  0.62803411  0.37959823  0.15389910     0.00300
C859        C  0.68288576  0.38468068  0.16586667    -0.08300
C860        C  0.70427368  0.35463903  0.20864008    -0.05700
C861        C  0.67601693  0.31731703  0.24042309     0.00300
C862        C  0.61960836  0.31615417  0.23107924    -0.08200
C863        C  0.57544617  0.29136486  0.26529568     0.62200
H864        H  0.55800024  0.33879187  0.17636493     0.12900
H865        H  0.74588639  0.35757224  0.21606820     0.12900
C866        C  0.72155644  0.41829373  0.13364166     0.62400
F867        F  0.53324503  0.32665446  0.26791252    -0.22800
F868        F  0.58759630  0.28128260  0.31774441    -0.20100
F869        F  0.55797245  0.24460624  0.24137190    -0.19800
F870        F  0.70865916  0.47194851  0.13770630    -0.19800
F871        F  0.72209197  0.40076519  0.08087624    -0.20100
F872        F  0.77272071  0.41376482  0.15177583    -0.22800
C873        C  0.32709809  0.66340619  0.23682965    -0.05600
C874        C  0.32650760  0.66915003  0.18079889     0.00300
C875        C  0.28634791  0.70322182  0.15930521    -0.08300
C876        C  0.25364067  0.73290899  0.19446091    -0.05700
C877        C  0.25803437  0.73282857  0.25104491     0.00300
C878        C  0.29117468  0.69010840  0.27194477    -0.08200
C879        C  0.28847758  0.66849497  0.32940834     0.62200
H880        H  0.35471133  0.63511106  0.25322584     0.12900
H881        H  0.22389750  0.75719083  0.17569631     0.12900
C882        C  0.27430414  0.71327184  0.10032377     0.62400
F883        F  0.32513246  0.62840340  0.33861308    -0.22800
F884        F  0.24003411  0.64577142  0.33921683    -0.20100
F885        F  0.29820798  0.70809359  0.36622414    -0.19800
F886        F  0.30395861  0.68436025  0.06441296    -0.19800
F887        F  0.28165859  0.76732337  0.08989190    -0.20100
F888        F  0.22230615  0.70074520  0.09061180    -0.22800
loop_ 
_geom_bond_atom_site_label_1 
_geom_bond_atom_site_label_2 
_geom_bond_distance 
_geom_bond_site_symmetry_2 
_ccdc_geom_bond_type 
C1           C17   1.643       .  S
C1           C35   1.613       .  S
C1           C48   1.621       .  S
C1          C874   1.553       .  S
C2           C18   1.626       .  S
C2           C63   1.628       .  S
C2           C78   1.635       .  S
C2          C858   1.567       .  S
C3           C16   1.603       .  S
C3           C49   1.619       .  S
C3           C61   1.624       .  S
C3          C845   1.521       .  S
C4           C15   1.617       .  S
C4           C34   1.624       .  S
C4           C76   1.623       .  S
C4          C826   1.546       .  S
O5           V13   2.048       .  S
O5           C15   1.296       .  A
O6           V13   2.041       .  S
O6           C16   1.298       .  A
O7           V13   2.065       .  S
O7           C17   1.301       .  A
O8           V13   2.047       .  S
O8           C18   1.298       .  A
O9           V14   1.821       .  S
O9           C18   1.233       .  A
O10          V14   1.828       .  S
O10          C17   1.233       .  A
O11          V14   1.802       .  S
O11          C16   1.225       .  A
O12          V14   1.817       .  S
O12          C15   1.229       .  A
V13          V14   1.950       .  T
C19          C36   1.608       .  S
C19          C77   1.635       .  S
C19          C89   1.620       .  S
C19         C810   1.547       .  S
C20          C62   1.618       .  S
C20          C75   1.615       .  S
C20          C91   1.633       .  S
C20         C794   1.549       .  S
C21          C47   1.618       .  S
C21          C64   1.615       .  S
C21          C90   1.617       .  S
C21         C778   1.531       .  S
C22          C33   1.621       .  S
C22          C50   1.617       .  S
C22          C92   1.641       .  S
C22         C762   1.551       .  S
O23          V31   2.055   1_556  S
O23          C33   1.300       .  A
O24          V31   2.046       .  S
O24          C34   1.298       .  A
O25          V31   2.037       .  S
O25          C35   1.296       .  A
O26          V31   2.041   1_556  S
O26          C36   1.294       .  A
O27          V32   1.810   1_556  S
O27          C36   1.229       .  A
O28          V32   1.808       .  S
O28          C35   1.229       .  A
O29          V32   1.815       .  S
O29          C34   1.229       .  A
O30          V32   1.815       .  S
O30          C33   1.229   1_554  A
V31          V32   1.959       .  T
O37          V45   2.047   1_556  S
O37          C47   1.295       .  A
O38          V45   2.049       .  S
O38          C48   1.297       .  A
O39          V45   2.037       .  S
O39          C49   1.295       .  A
O40          V45   2.015   1_556  S
O40          C50   1.292       .  A
O41          V46   1.814   1_556  S
O41          C50   1.225       .  A
O42          V46   1.807       .  S
O42          C49   1.230       .  A
O43          V46   1.815       .  S
O43          C48   1.230       .  A
O44          V46   1.811   1_556  S
O44          C47   1.230       .  A
V45          V46   1.948       .  T
O51          V59   1.812       .  S
O51          C61   1.228       .  A
O52          V59   1.812   1_556  S
O52          C62   1.231       .  A
O53          V59   1.824       .  S
O53          C63   1.229       .  A
O54          V59   1.814   1_556  S
O54          C64   1.231       .  A
O55          V60   2.043   1_556  S
O55          C64   1.297       .  A
O56          V60   2.039       .  S
O56          C63   1.298       .  A
O57          V60   2.041   1_556  S
O57          C62   1.295       .  A
O58          V60   2.050       .  S
O58          C61   1.298       .  A
V59          V60   1.947       .  T
O65          V73   2.043   1_556  S
O65          C75   1.297       .  A
O66          V73   2.041       .  S
O66          C76   1.295       .  A
O67          V73   2.043   1_556  S
O67          C77   1.299       .  A
O68          V73   2.064       .  S
O68          C78   1.301       .  A
O69          V74   1.828       .  S
O69          C78   1.232       .  A
O70          V74   1.819   1_556  S
O70          C77   1.231       .  A
O71          V74   1.825       .  S
O71          C76   1.230       .  A
O72          V74   1.817   1_556  S
O72          C75   1.232       .  A
V73          V74   1.947       .  T
O79          V87   2.045       .  S
O79          C89   1.298       .  A
O80          V87   2.042       .  S
O80          C90   1.296       .  A
O81          V87   2.049       .  S
O81          C91   1.299       .  A
O82          V87   2.063       .  S
O82          C92   1.301       .  A
O83          V88   1.831       .  S
O83          C92   1.234       .  A
O84          V88   1.827       .  S
O84          C91   1.232       .  A
O85          V88   1.814       .  S
O85          C90   1.228       .  A
O86          V88   1.819       .  S
O86          C89   1.231       .  A
V87          V88   1.940       .  T
C93         C108   1.626       .  S
C93         C128   1.626       .  S
C93         C140   1.626       .  S
C93         C746   1.542       .  S
C94         C110   1.615       .  S
C94         C125   1.608       .  S
C94         C169   1.627       .  S
C94         C730   1.519       .  S
C95         C109   1.624       .  S
C95         C142   1.610       .  S
C95         C156   1.629       .  S
C95         C714   1.539       .  S
C96         C107   1.611       .  S
C96         C153   1.631       .  S
C96         C167   1.623       .  S
C96         C701   1.544       .  S
O97         V105   1.812       .  S
O97         C107   1.227       .  A
O98         V105   1.816       .  S
O98         C108   1.229       .  A
O99         V105   1.811       .  S
O99         C109   1.228       .  A
O100        V105   1.808       .  S
O100        C110   1.228       .  A
O101        V106   2.047       .  S
O101        C110   1.296       .  A
O102        V106   2.041       .  S
O102        C109   1.296       .  A
O103        V106   2.055       .  S
O103        C108   1.299       .  A
O104        V106   2.042       .  S
O104        C107   1.296       .  A
V105        V106   1.950       .  T
C111        C127   1.602       .  S
C111        C168   1.635       .  S
C111        C182   1.626       .  S
C111        C685   1.541       .  S
C112        C155   1.626       .  S
C112        C170   1.605       .  S
C112        C184   1.618       .  S
C112        C666   1.524       .  S
C113        C139   1.627       .  S
C113        C154   1.603       .  S
C113        C181   1.609       .  S
C113        C650   1.524       .  S
C114        C126   1.606       .  S
C114        C141   1.611       .  S
C114        C183   1.634       .  S
C114        C634   1.527       .  S
O115        V123   2.041       .  S
O115        C125   1.297       .  A
O116        V123   2.040   1_565  S
O116        C126   1.296       .  A
O117        V123   2.034   1_565  S
O117        C127   1.294       .  A
O118        V123   2.032       .  S
O118        C128   1.297       .  A
O119        V124   1.810       .  S
O119        C128   1.228       .  A
O120        V124   1.804   1_565  S
O120        C127   1.228       .  A
O121        V124   1.806   1_565  S
O121        C126   1.226       .  A
O122        V124   1.804       .  S
O122        C125   1.225       .  A
V123        V124   1.956       .  T
O129        V137   1.816   1_565  S
O129        C139   1.230       .  A
O130        V137   1.810       .  S
O130        C140   1.226       .  A
O131        V137   1.808   1_565  S
O131        C141   1.227       .  A
O132        V137   1.815       .  S
O132        C142   1.226       .  A
O133        V138   2.047       .  S
O133        C142   1.297       .  A
O134        V138   2.027   1_565  S
O134        C141   1.294       .  A
O135        V138   2.053       .  S
O135        C140   1.302       .  A
O136        V138   2.051   1_565  S
O136        C139   1.296       .  A
V137        V138   1.955       .  T
O143        V151   1.813       .  S
O143        C153   1.228       .  A
O144        V151   1.807   1_565  S
O144        C154   1.227       .  A
O145        V151   1.810   1_565  S
O145        C155   1.229       .  A
O146        V151   1.812       .  S
O146        C156   1.229       .  A
O147        V152   2.043       .  S
O147        C156   1.298       .  A
O148        V152   2.044   1_565  S
O148        C155   1.297       .  A
O149        V152   2.032   1_565  S
O149        C154   1.293       .  A
O150        V152   2.034       .  S
O150        C153   1.298       .  A
V151        V152   1.948       .  T
O157        V165   1.816       .  S
O157        C167   1.229       .  A
O158        V165   1.816   1_565  S
O158        C168   1.230       .  A
O159        V165   1.809       .  S
O159        C169   1.226       .  A
O160        V165   1.806   1_565  S
O160        C170   1.228       .  A
O161        V166   2.041   1_565  S
O161        C170   1.295       .  A
O162        V166   2.036       .  S
O162        C169   1.299       .  A
O163        V166   2.048   1_565  S
O163        C168   1.299       .  A
O164        V166   2.050       .  S
O164        C167   1.297       .  A
V165        V166   1.948       .  T
O171        V179   2.041       .  S
O171        C181   1.295       .  A
O172        V179   2.052       .  S
O172        C182   1.300       .  A
O173        V179   2.060       .  S
O173        C183   1.299       .  A
O174        V179   2.045       .  S
O174        C184   1.299       .  A
O175        V180   1.809       .  S
O175        C184   1.227       .  A
O176        V180   1.821       .  S
O176        C183   1.229       .  A
O177        V180   1.818       .  S
O177        C182   1.229       .  A
O178        V180   1.815       .  S
O178        C181   1.228       .  A
V179        V180   1.949       .  T
C185        C215   1.627       .  S
C185        C242   1.614       .  S
C185        C258   1.630       .  S
C185        C618   1.548       .  S
C186        C227   1.609       .  S
C186        C244   1.636       .  S
C186        C255   1.634       .  S
C186        C602   1.559       .  S
C187        C202   1.611       .  S
C187        C230   1.619       .  S
C187        C257   1.635       .  S
C187        C586   1.538       .  S
C188        C200   1.646       .  S
C188        C214   1.603       .  S
C188        C256   1.615       .  S
C188        C570   1.533       .  S
O189        V197   2.050   1_455  S
O189        C199   1.298       .  A
O190        V197   2.062       .  S
O190        C200   1.303       .  A
O191        V197   2.044   1_455  S
O191        C201   1.295       .  A
O192        V197   2.044       .  S
O192        C202   1.297       .  A
O193        V198   1.807       .  S
O193        C202   1.229       .  A
O194        V198   1.815   1_455  S
O194        C201   1.228       .  A
O195        V198   1.824       .  S
O195        C200   1.231       .  A
O196        V198   1.816   1_455  S
O196        C199   1.231       .  A
V197        V198   1.945       .  T
C199        C260   1.628       .  S
C201        C261   1.616       .  S
O203        V211   2.030   1_455  S
O203        C213   1.293       .  A
O204        V211   2.037       .  S
O204        C214   1.296       .  A
O205        V211   2.035       .  S
O205        C215   1.297       .  A
O206        V211   2.037   1_455  S
O206        C216   1.294       .  A
O207        V212   1.816   1_455  S
O207        C216   1.233       .  A
O208        V212   1.821       .  S
O208        C215   1.227       .  A
O209        V212   1.802       .  S
O209        C214   1.225       .  A
O210        V212   1.811   1_455  S
O210        C213   1.227       .  A
V211        V212   1.948       .  T
C213        C259   1.603       .  S
C216        C261   1.613       .  S
O217        V225   2.033       .  S
O217        C227   1.294       .  A
O218        V225   2.032   1_455  S
O218        C228   1.295       .  A
O219        V225   2.048   1_455  S
O219        C229   1.297       .  A
O220        V225   2.046       .  S
O220        C230   1.298       .  A
O221        V226   1.812       .  S
O221        C230   1.229       .  A
O222        V226   1.828   1_455  S
O222        C229   1.234       .  A
O223        V226   1.819       .  S
O223        C228   1.228   1_655  A
O224        V226   1.810       .  S
O224        C227   1.231       .  A
V225        V226   1.950       .  T
C228        C260   1.624       .  S
C229        C262   1.636       .  S
O231        V239   1.827       .  S
O231        C241   1.230   1_655  A
O232        V239   1.814       .  S
O232        C242   1.229       .  A
O233        V239   1.816   1_455  S
O233        C243   1.229       .  A
O234        V239   1.826       .  S
O234        C244   1.232       .  A
O235        V240   2.060       .  S
O235        C244   1.301       .  A
O236        V240   2.040   1_455  S
O236        C243   1.295       .  A
O237        V240   2.046       .  S
O237        C242   1.299       .  A
O238        V240   2.055   1_455  S
O238        C241   1.298       .  A
V239        V240   1.951       .  T
C241        C262   1.623       .  S
C243        C259   1.608       .  S
O245        V253   2.048       .  S
O245        C255   1.299       .  A
O246        V253   2.046       .  S
O246        C256   1.297       .  A
O247        V253   2.053       .  S
O247        C257   1.300       .  A
O248        V253   2.050       .  S
O248        C258   1.297       .  A
O249        V254   1.817       .  S
O249        C258   1.233       .  A
O250        V254   1.815       .  S
O250        C257   1.230       .  A
O251        V254   1.808       .  S
O251        C256   1.229       .  A
O252        V254   1.818       .  S
O252        C255   1.230       .  A
V253        V254   1.948       .  T
C259        C273   1.634       .  S
C259        C557   1.538       .  S
C260        C274   1.618       .  S
C260        C541   1.548       .  S
C261        C275   1.630       .  S
C261        C525   1.546       .  S
C262        C276   1.627       .  S
C262        C509   1.574       .  S
O263        V271   2.057       .  S
O263        C273   1.298       .  A
O264        V271   2.047       .  S
O264        C274   1.298       .  A
O265        V271   2.042       .  S
O265        C275   1.299       .  A
O266        V271   2.030       .  S
O266        C276   1.297       .  A
O267        V272   1.819       .  S
O267        C276   1.230       .  A
O268        V272   1.819       .  S
O268        C275   1.229       .  A
O269        V272   1.814       .  S
O269        C274   1.231       .  A
O270        V272   1.821       .  S
O270        C273   1.233       .  A
V271        V272   1.950       .  T
C277        C490   1.597       .  S
C277        C506   1.592       .  S
C277        C698   1.580       .  S
C277        C829   1.598       .  S
C278        C477   1.604       .  S
C278        C605   1.617       .  S
C278        C733   1.559       .  S
C278        C861   1.601       .  S
C279        C458   1.615       .  S
C279        C538   1.586       .  S
C279        C669   1.564       .  S
C279        C877   1.622       .  S
C280        C442   1.584       .  S
C280        C554   1.596       .  S
C280        C717   1.590       .  S
C280        C813   1.616       .  S
C281        C426   1.585       .  S
C281        C621   1.598       .  S
C281        C749   1.570       .  S
C281        C797   1.598       .  S
C282        C410   1.608       .  S
C282        C589   1.612       .  S
C282        C682   1.582       .  S
C282        C842   1.575       .  S
C283        C394   1.618       .  S
C283        C522   1.596       .  S
C283        C653   1.587       .  S
C283        C765   1.577       .  S
C284        C299   1.618       .  S
C284        C315   1.631       .  S
C284        C330   1.612       .  S
C284        C493   1.544       .  S
C285        C317   1.628       .  S
C285        C331   1.598       .  S
C285        C372   1.628       .  S
C285        C445   1.535       .  S
C286        C302   1.640       .  S
C286        C332   1.610       .  S
C286        C358   1.619       .  S
C286        C474   1.543       .  S
C287        C301   1.620       .  S
C287        C316   1.634       .  S
C287        C344   1.614       .  S
C287        C461   1.548       .  S
C288        C300   1.637       .  S
C288        C347   1.624       .  S
C288        C360   1.625       .  S
C288        C413   1.562       .  S
O289        V297   2.047   1_455  S
O289        C299   1.297       .  A
O290        V297   2.041   1_565  S
O290        C300   1.297       .  A
O291        V297   2.049   1_465  S
O291        C301   1.297       .  A
O292        V297   2.055       .  S
O292        C302   1.301       .  A
O293        V298   1.820       .  S
O293        C302   1.230       .  A
O294        V298   1.816   1_465  S
O294        C301   1.232       .  A
O295        V298   1.828       .  S
O295        C300   1.232   1_545  A
O296        V298   1.821   1_455  S
O296        C299   1.233       .  A
V297        V298   1.945       .  T
C303        C314   1.632       .  S
C303        C346   1.617       .  S
C303        C375   1.611       .  S
C303        C397   1.552       .  S
O304        V312   2.055   1_566  S
O304        C314   1.299       .  A
O305        V312   2.059       .  S
O305        C315   1.301       .  A
O306        V312   2.054   1_565  S
O306        C316   1.299       .  A
O307        V312   2.052   1_556  S
O307        C317   1.299       .  A
O308        V313   1.822   1_556  S
O308        C317   1.231       .  A
O309        V313   1.823       .  S
O309        C316   1.232   1_545  A
O310        V313   1.821       .  S
O310        C315   1.230       .  A
O311        V313   1.826   1_565  S
O311        C314   1.232   1_554  A
V312        V313   1.946       .  T
C318        C329   1.610       .  S
C318        C361   1.639       .  S
C318        C374   1.616       .  S
C318        C429   1.536       .  S
O319        V327   2.043   1_556  S
O319        C329   1.296       .  A
O320        V327   2.034   1_455  S
O320        C330   1.293       .  A
O321        V327   2.028   1_456  S
O321        C331   1.294       .  A
O322        V327   2.042       .  S
O322        C332   1.296       .  A
O323        V328   1.809       .  S
O323        C332   1.226       .  A
O324        V328   1.804   1_456  S
O324        C331   1.227       .  A
O325        V328   1.812   1_455  S
O325        C330   1.228       .  A
O326        V328   1.804   1_556  S
O326        C329   1.229       .  A
V327        V328   1.949       .  T
C333        C345   1.639       .  S
C333        C359   1.613       .  S
C333        C373   1.605       .  S
C333        C381   1.534       .  S
O334        V342   2.037   1_455  S
O334        C344   1.298       .  A
O335        V342   2.059   1_556  S
O335        C345   1.299       .  A
O336        V342   2.035   1_456  S
O336        C346   1.293       .  A
O337        V342   2.055       .  S
O337        C347   1.301       .  A
O338        V343   1.821       .  S
O338        C347   1.229       .  A
O339        V343   1.821   1_456  S
O339        C346   1.230       .  A
O340        V343   1.826       .  S
O340        C345   1.232   1_554  A
O341        V343   1.812   1_455  S
O341        C344   1.231       .  A
V342        V343   1.947       .  T
O348        V356   2.047       .  S
O348        C358   1.298       .  A
O349        V356   2.043   1_566  S
O349        C359   1.295       .  A
O350        V356   2.049   1_565  S
O350        C360   1.298       .  A
O351        V356   2.054   1_556  S
O351        C361   1.300       .  A
O352        V357   1.818       .  S
O352        C361   1.230   1_554  A
O353        V357   1.814   1_565  S
O353        C360   1.232       .  A
O354        V357   1.808   1_566  S
O354        C359   1.230       .  A
O355        V357   1.812       .  S
O355        C358   1.228       .  A
V356        V357   1.952       .  T
O362        V370   2.051   1_455  S
O362        C372   1.298       .  A
O363        V370   2.033   1_565  S
O363        C373   1.297       .  A
O364        V370   2.045       .  S
O364        C374   1.299       .  A
O365        V370   2.040   1_465  S
O365        C375   1.294       .  A
O366        V371   1.817   1_465  S
O366        C375   1.231       .  A
O367        V371   1.812       .  S
O367        C374   1.228       .  A
O368        V371   1.803   1_565  S
O368        C373   1.226       .  A
O369        V371   1.812       .  S
O369        C372   1.229   1_655  A
V370        V371   1.957       .  T
C376        C378   1.592       .  S
C376        C573   1.566       .  S
C376        C637   1.605       .  S
C376        C781   1.602       .  S
C377        C378   1.414       .  A
C377        C382   1.406       .  A
C377        H384   1.067       .  S
C378        C379   1.452       .  A
C379        C386   1.534       .  S
C379        C380   1.416       .  A
C380        C381   1.399       .  A
C380        H385   1.075       .  S
C381        C382   1.429       .  A
C382        C383   1.533       .  S
C383        F387   1.383       .  S
C383        F388   1.384       .  S
C383        F389   1.367   1_565  S
C386        F390   1.374       .  S
C386        F391   1.385       .  S
C386        F392   1.381       .  S
C393        C394   1.418       .  A
C393        C398   1.405       .  A
C393        H400   1.074       .  S
C394        C395   1.460       .  A
C395        C402   1.536       .  S
C395        C396   1.422       .  A
C396        C397   1.401       .  A
C396        H401   1.080       .  S
C397        C398   1.424       .  A
C398        C399   1.524       .  S
C399        F403   1.385       .  S
C399        F404   1.382       .  S
C399        F405   1.380       .  S
C402        F406   1.377       .  S
C402        F407   1.373       .  S
C402        F408   1.386       .  S
C409        C410   1.422       .  A
C409        C414   1.410       .  A
C409        H416   1.078       .  S
C410        C411   1.452       .  A
C411        C418   1.531       .  S
C411        C412   1.421       .  A
C412        C413   1.407       .  A
C412        H417   1.080       .  S
C413        C414   1.427       .  A
C414        C415   1.516       .  S
C415        F419   1.386       .  S
C415        F420   1.381       .  S
C415        F421   1.381       .  S
C418        F422   1.374       .  S
C418        F423   1.379       .  S
C418        F424   1.386       .  S
C425        C426   1.421       .  A
C425        C430   1.404       .  A
C425        H432   1.074       .  S
C426        C427   1.447       .  A
C427        C434   1.534       .  S
C427        C428   1.414       .  A
C428        C429   1.404       .  A
C428        H433   1.072       .  S
C429        C430   1.427       .  A
C430        C431   1.532       .  S
C431        F435   1.384       .  S
C431        F436   1.370       .  S
C431        F437   1.384       .  S
C434        F438   1.381       .  S
C434        F439   1.373       .  S
C434        F440   1.385       .  S
C441        C442   1.414       .  A
C441        C446   1.400       .  A
C441        H448   1.074       .  S
C442        C443   1.446       .  A
C443        C450   1.535       .  S
C443        C444   1.416       .  A
C444        C445   1.409       .  A
C444        H449   1.077       .  S
C445        C446   1.428       .  A
C446        C447   1.534       .  S
C447        F451   1.382       .  S
C447        F452   1.385       .  S
C447        F453   1.373       .  S
C450        F454   1.376       .  S
C450        F455   1.379       .  S
C450        F456   1.386       .  S
C457        C458   1.424       .  A
C457        C462   1.408       .  A
C457        H464   1.076       .  S
C458        C459   1.451       .  A
C459        C466   1.531       .  S
C459        C460   1.421       .  A
C460        C461   1.408       .  A
C460        H465   1.077       .  S
C461        C462   1.427       .  A
C462        C463   1.534       .  S
C463        F467   1.384       .  S
C463        F468   1.384       .  S
C463        F469   1.370       .  S
C466        F470   1.372       .  S
C466        F471   1.382       .  S
C466        F472   1.385       .  S
C473        C474   1.401       .  A
C473        C478   1.412       .  A
C473        H480   1.071       .  S
C474        C475   1.428       .  A
C475        C482   1.535       .  S
C475        C476   1.406       .  A
C476        C477   1.419       .  A
C476        H481   1.068       .  S
C477        C478   1.454       .  A
C478        C479   1.539       .  S
C479        F483   1.380       .  S
C479        F484   1.373       .  S
C479        F485   1.386       .  S
C482        F486   1.386       .  S
C482        F487   1.377       .  S
C482        F488   1.380       .  S
C489        C490   1.412       .  A
C489        C494   1.404       .  A
C489        H496   1.076       .  S
C490        C491   1.452       .  A
C491        C498   1.534       .  S
C491        C492   1.415       .  A
C492        C493   1.402       .  A
C492        H497   1.085       .  S
C493        C494   1.428       .  A
C494        C495   1.526       .  S
C495        F499   1.386       .  S
C495        F500   1.382       .  S
C495        F501   1.380       .  S
C498        F502   1.382       .  S
C498        F503   1.369       .  S
C498        F504   1.386       .  S
C505        C506   1.423       .  A
C505        C510   1.412       .  A
C505        H512   1.064       .  S
C506        C507   1.441       .  A
C507        C514   1.534       .  S
C507        C508   1.414       .  A
C508        C509   1.413       .  A
C508        H513   1.068       .  S
C509        C510   1.425       .  A
C510        C511   1.519       .  S
C511        F515   1.385       .  S
C511        F516   1.369       .  S
C511        F517   1.377       .  S
C514        F518   1.373       .  S
C514        F519   1.381       .  S
C514        F520   1.386       .  S
C521        C522   1.421       .  A
C521        C526   1.408       .  A
C521        H528   1.075       .  S
C522        C523   1.444       .  A
C523        C530   1.534       .  S
C523        C524   1.412       .  A
C524        C525   1.405       .  A
C524        H529   1.067       .  S
C525        C526   1.426       .  A
C526        C527   1.530       .  S
C527        F531   1.384       .  S
C527        F532   1.378       .  S
C527        F533   1.380       .  S
C530        F534   1.365       .  S
C530        F535   1.378       .  S
C530        F536   1.385       .  S
C537        C538   1.419       .  A
C537        C542   1.401       .  A
C537        H544   1.079       .  S
C538        C539   1.457       .  A
C539        C546   1.545       .  S
C539        C540   1.414       .  A
C540        C541   1.407       .  A
C540        H545   1.083       .  S
C541        C542   1.423       .  A
C542        C543   1.516       .  S
C543        F547   1.386       .  S
C543        F548   1.382       .  S
C543        F549   1.381       .  S
C546        F550   1.382       .  S
C546        F551   1.365       .  S
C546        F552   1.387       .  S
C553        C554   1.418       .  A
C553        C558   1.398       .  A
C553        H560   1.081       .  S
C554        C555   1.451       .  A
C555        C562   1.522       .  S
C555        C556   1.418       .  A
C556        C557   1.398       .  A
C556        H561   1.080       .  S
C557        C558   1.426       .  A
C558        C559   1.528       .  S
C559        F563   1.387       .  S
C559        F564   1.381       .  S
C559        F565   1.380       .  S
C562        F566   1.375       .  S
C562        F567   1.378       .  S
C562        F568   1.386       .  S
C569        C570   1.393       .  A
C569        C574   1.406       .  A
C569        H576   1.076       .  S
C570        C571   1.431       .  A
C571        C578   1.526       .  S
C571        C572   1.410       .  A
C572        C573   1.412       .  A
C572        H577   1.079       .  S
C573        C574   1.451       .  A
C574        C575   1.534       .  S
C575        F579   1.381       .  S
C575        F580   1.375       .  S
C575        F581   1.386       .  S
C578        F582   1.385       .  S
C578        F583   1.373       .  S
C578        F584   1.383       .  S
C585        C586   1.404       .  A
C585        C590   1.415       .  A
C585        H592   1.074       .  S
C586        C587   1.425       .  A
C587        C594   1.530       .  S
C587        C588   1.402       .  A
C588        C589   1.420       .  A
C588        H593   1.078       .  S
C589        C590   1.454       .  A
C590        C591   1.540       .  S
C591        F595   1.386       .  S
C591        F596   1.371       .  S
C591        F597   1.375       .  S
C594        F598   1.371       .  S
C594        F599   1.386       .  S
C594        F600   1.383       .  S
C601        C602   1.412       .  A
C601        C606   1.421       .  A
C601        H608   1.072       .  S
C602        C603   1.427       .  A
C603        C610   1.516       .  S
C603        C604   1.406       .  A
C604        C605   1.416       .  A
C604        H609   1.078       .  S
C605        C606   1.444       .  A
C606        C607   1.529       .  S
C607        F611   1.385       .  S
C607        F612   1.371       .  S
C607        F613   1.378       .  S
C610        F614   1.366       .  S
C610        F615   1.384       .  S
C610        F616   1.385       .  S
C617        C618   1.406       .  A
C617        C622   1.413       .  A
C617        H624   1.083       .  S
C618        C619   1.426       .  A
C619        C626   1.519       .  S
C619        C620   1.400       .  A
C620        C621   1.413       .  A
C620        H625   1.067       .  S
C621        C622   1.450       .  A
C622        C623   1.536       .  S
C623        F627   1.387       .  S
C623        F628   1.373       .  S
C623        F629   1.380       .  S
C626        F630   1.381       .  S
C626        F631   1.381       .  S
C626        F632   1.386       .  S
C633        C634   1.390       .  A
C633        C638   1.415       .  A
C633        H640   1.077       .  S
C634        C635   1.417       .  A
C635        C642   1.523       .  S
C635        C636   1.399       .  A
C636        C637   1.413       .  A
C636        H641   1.073       .  S
C637        C638   1.477       .  A
C638        C639   1.549       .  S
C639        F643   1.386       .  S
C639        F644   1.372       .  S
C639        F645   1.373       .  S
C642        F646   1.383       .  S
C642        F647   1.376       .  S
C642        F648   1.378       .  S
C649        C650   1.390       .  A
C649        C654   1.413       .  A
C649        H656   1.083       .  S
C650        C651   1.415       .  A
C651        C658   1.523       .  S
C651        C652   1.398       .  A
C652        C653   1.424       .  A
C652        H657   1.081       .  S
C653        C654   1.466       .  A
C654        C655   1.532       .  S
C655        F659   1.388       .  S
C655        F660   1.367       .  S
C655        F661   1.378       .  S
C658        F662   1.382       .  S
C658        F663   1.381       .  S
C658        F664   1.386       .  S
C665        C666   1.405       .  A
C665        C670   1.407       .  A
C665        H672   1.075       .  S
C666        C667   1.420       .  A
C667        C674   1.531       .  S
C667        C668   1.398       .  A
C668        C669   1.417       .  A
C668        H673   1.070       .  S
C669        C670   1.447       .  A
C670        C671   1.535       .  S
C671        F675   1.386       .  S
C671        F676   1.374       .  S
C671        F677   1.380       .  S
C674        F678   1.384       .  S
C674        F679   1.372       .  S
C674        F680   1.385       .  S
C681        C682   1.415       .  A
C681        C686   1.408       .  A
C681        H688   1.076       .  S
C682        C683   1.439       .  A
C683        C690   1.532       .  S
C683        C684   1.412       .  A
C684        C685   1.409       .  A
C684        H689   1.071       .  S
C685        C686   1.428       .  A
C686        C687   1.531       .  S
C687        F691   1.386       .  S
C687        F692   1.373       .  S
C687        F693   1.381       .  S
C690        F694   1.385       .  S
C690        F695   1.371       .  S
C690        F696   1.380       .  S
C697        C698   1.427       .  A
C697        C702   1.411       .  A
C697        H704   1.072       .  S
C698        C699   1.443       .  A
C699        C706   1.537       .  S
C699        C700   1.404       .  A
C700        C701   1.402       .  A
C700        H705   1.066       .  S
C701        C702   1.424       .  A
C702        C703   1.530       .  S
C703        F707   1.384       .  S
C703        F708   1.377       .  S
C703        F709   1.381       .  S
C706        F710   1.386       .  S
C706        F711   1.372       .  S
C706        F712   1.380       .  S
C713        C714   1.405       .  A
C713        C718   1.402       .  A
C713        H720   1.079       .  S
C714        C715   1.426       .  A
C715        C722   1.513       .  S
C715        C716   1.396       .  A
C716        C717   1.415       .  A
C716        H721   1.075       .  S
C717        C718   1.453       .  A
C718        C719   1.542       .  S
C719        F723   1.388       .  S
C719        F724   1.380       .  S
C719        F725   1.368       .  S
C722        F726   1.367       .  S
C722        F727   1.378       .  S
C722        F728   1.386       .  S
C729        C730   1.402       .  A
C729        C734   1.402       .  A
C729        H736   1.071       .  S
C730        C731   1.416       .  A
C731        C738   1.530       .  S
C731        C732   1.398       .  A
C732        C733   1.420       .  A
C732        H737   1.070       .  S
C733        C734   1.445       .  A
C734        C735   1.537       .  S
C735        F739   1.386       .  S
C735        F740   1.381       .  S
C735        F741   1.373       .  S
C738        F742   1.374       .  S
C738        F743   1.383       .  S
C738        F744   1.385       .  S
C745        C746   1.406       .  A
C745        C750   1.409       .  A
C745        H752   1.065       .  S
C746        C747   1.420       .  A
C747        C754   1.513       .  S
C747        C748   1.398       .  A
C748        C749   1.417       .  A
C748        H753   1.075       .  S
C749        C750   1.441       .  A
C750        C751   1.534       .  S
C751        F755   1.381       .  S
C751        F756   1.375       .  S
C751        F757   1.386       .  S
C754        F758   1.361       .  S
C754        F759   1.384       .  S
C754        F760   1.385       .  S
C761        C762   1.406       .  A
C761        C766   1.415       .  A
C761        H768   1.085       .  S
C762        C763   1.440       .  A
C763        C770   1.517       .  S
C763        C764   1.396       .  A
C764        C765   1.398       .  A
C764        H769   1.073       .  S
C765        C766   1.448       .  A
C766        C767   1.530       .  S
C767        F771   1.387       .  S
C767        F772   1.382       .  S
C767        F773   1.372       .  S
C770        F774   1.382       .  S
C770        F775   1.369       .  S
C770        F776   1.387       .  S
C777        C778   1.399       .  A
C777        C782   1.408       .  A
C777        H784   1.085       .  S
C778        C779   1.417       .  A
C779        C786   1.521       .  S
C779        C780   1.403       .  A
C780        C781   1.419       .  A
C780        H785   1.064       .  S
C781        C782   1.455       .  A
C782        C783   1.531       .  S
C783        F787   1.388       .  S
C783        F788   1.369       .  S
C783        F789   1.380       .  S
C786        F790   1.381       .  S
C786        F791   1.386       .  S
C786        F792   1.382       .  S
C793        C794   1.411       .  A
C793        C798   1.411       .  A
C793        H800   1.085       .  S
C794        C795   1.424       .  A
C795        C802   1.518       .  S
C795        C796   1.408       .  A
C796        C797   1.420       .  A
C796        H801   1.072       .  S
C797        C798   1.441       .  A
C798        C799   1.533       .  S
C799        F803   1.386       .  S
C799        F804   1.370       .  S
C799        F805   1.381       .  S
C802        F806   1.381       .  S
C802        F807   1.380       .  S
C802        F808   1.386       .  S
C809        C810   1.402       .  A
C809        C814   1.405       .  A
C809        H816   1.075       .  S
C810        C811   1.425       .  A
C811        C818   1.528       .  S
C811        C812   1.414       .  A
C812        C813   1.429       .  A
C812        H817   1.076       .  S
C813        C814   1.448       .  A
C814        C815   1.525       .  S
C815        F819   1.383       .  S
C815        F820   1.355       .  S
C815        F821   1.384       .  S
C818        F822   1.384       .  S
C818        F823   1.372       .  S
C818        F824   1.384       .  S
C825        C826   1.407       .  A
C825        C830   1.418       .  A
C825        H832   1.083       .  S
C826        C827   1.420       .  A
C827        C834   1.521       .  S
C827        C828   1.402       .  A
C828        C829   1.415       .  A
C828        H833   1.072       .  S
C829        C830   1.450       .  A
C830        C831   1.534       .  S
C831        F835   1.381       .  S
C831        F836   1.372       .  S
C831        F837   1.387       .  S
C834        F838   1.382       .  S
C834        F839   1.381       .  S
C834        F840   1.386       .  S
C841        C842   1.420       .  A
C841        C846   1.401       .  A
C841        H848   1.081       .  S
C842        C843   1.448       .  A
C843        C850   1.533       .  S
C843        C844   1.403       .  A
C844        C845   1.404       .  A
C844        H849   1.081       .  S
C845        C846   1.419       .  A
C846        C847   1.521       .  S
C847        F851   1.385       .  S
C847        F852   1.382       .  S
C847        F853   1.375       .  S
C850        F854   1.382       .  S
C850        F855   1.368       .  S
C850        F856   1.388       .  S
C857        C858   1.404       .  A
C857        C862   1.419       .  A
C857        H864   1.085       .  S
C858        C859   1.436       .  A
C859        C866   1.520       .  S
C859        C860   1.413       .  A
C860        C861   1.416       .  A
C860        H865   1.079       .  S
C861        C862   1.457       .  A
C862        C863   1.537       .  S
C863        F867   1.387       .  S
C863        F868   1.366       .  S
C863        F869   1.382       .  S
C866        F870   1.378       .  S
C866        F871   1.381       .  S
C866        F872   1.386       .  S
C873        C874   1.401       .  A
C873        C878   1.422       .  A
C873        H880   1.077       .  S
C874        C875   1.434       .  A
C875        C882   1.521       .  S
C875        C876   1.409       .  A
C876        C877   1.412       .  A
C876        H881   1.077       .  S
C877        C878   1.455       .  A
C878        C879   1.529       .  S
C879        F883   1.385       .  S
C879        F884   1.379       .  S
C879        F885   1.368       .  S
C882        F886   1.367       .  S
C882        F887   1.385       .  S
C882        F888   1.384       .  S
