geometry optimzed in LAMMPS
_audit_creation_date              2020-11-30 
_audit_creation_method            'lammps2cif' 
_symmetry_space_group_name_H-M    'P1' 
_symmetry_Int_Tables_number       1 
_symmetry_cell_setting            triclinic 
loop_ 
_symmetry_equiv_pos_as_xyz 
  x,y,z 
_cell_length_a                    32.70138736 
_cell_length_b                    32.97319718083894 
_cell_length_c                    32.44936818557216 
_cell_angle_alpha                 89.84008204736824 
_cell_angle_beta                  90.02863748376197 
_cell_angle_gamma                 89.97634216034596 
loop_ 
_atom_site_label 
_atom_site_type_symbol 
_atom_site_fract_x 
_atom_site_fract_y 
_atom_site_fract_z 
_atom_site_charge 
O1          O  0.30612426  0.66441523  0.76741601    -0.79600
O2          O  0.31690632  0.82457923  0.73517814    -0.79600
O3          O  0.25850935  0.71383878  0.66239807    -0.79600
O4          O  0.27840617  0.78776266  0.84104781    -0.79600
O5          O  0.30705859  0.75900784  0.67413649    -0.79700
O6          O  0.31081039  0.73071773  0.82481777    -0.79600
O7          O  0.27607311  0.84917877  0.78353581    -0.79600
O8          O  0.26570692  0.66904038  0.71166484    -0.79600
C9          C  0.29081078  0.64881845  0.73466080     1.10100
C10         C  0.30666555  0.85288115  0.75978218     1.10000
C11         C  0.29002951  0.73269051  0.65052188     1.10100
C12         C  0.30249740  0.75911630  0.85038105     1.10000
O13         O  0.24353960  0.70995874  0.82017061    -0.79600
O14         O  0.22912035  0.79015526  0.65800890    -0.79700
O15         O  0.19344558  0.67868139  0.74058839    -0.79600
O16         O  0.19485243  0.83063158  0.76301361    -0.79600
O17         O  0.23780350  0.85096257  0.71440155    -0.79700
O18         O  0.23829713  0.67825812  0.79116184    -0.79600
O19         O  0.20029898  0.76304718  0.82183087    -0.79600
O20         O  0.18717701  0.74060030  0.67626605    -0.79700
Co21       Co  0.28261994  0.71829105  0.77016108     1.51500
Co22       Co  0.27214119  0.80275080  0.70015847     1.51700
Co23       Co  0.22897359  0.72020806  0.71523243     1.51600
Co24       Co  0.23751720  0.80431653  0.79833480     1.51500
O25         O  0.25278838  0.76640783  0.74982682    -1.41500
C26         C  0.21599792  0.73174307  0.83884350     1.10000
C27         C  0.19888281  0.76724934  0.65054345     1.10100
C28         C  0.20917292  0.66075622  0.77121308     1.10000
C29         C  0.20716317  0.85742176  0.73735789     1.10000
O30         O  0.73011792  0.17768046  0.66638879    -0.79600
O31         O  0.76542128  0.17178060  0.83377486    -0.79600
O32         O  0.82171968  0.21662220  0.70794235    -0.79600
O33         O  0.66209852  0.21179626  0.79132550    -0.79600
O34         O  0.82365283  0.17655490  0.76366529    -0.79700
O35         O  0.67642292  0.18042686  0.73254752    -0.79600
O36         O  0.71794268  0.21563165  0.85414003    -0.79600
O37         O  0.78937069  0.20928787  0.67720585    -0.79600
C38         C  0.76495476  0.18876324  0.65294157     1.10100
C39         C  0.74027069  0.18485914  0.86091755     1.10000
C40         C  0.84156430  0.19214847  0.73230957     1.10100
C41         C  0.65180564  0.18909596  0.76181564     1.10000
O42         O  0.68702464  0.24549259  0.70702303    -0.79600
O43         O  0.84388530  0.25297259  0.79052406    -0.79700
O44         O  0.77697195  0.28283422  0.66520112    -0.79600
O45         O  0.74257675  0.29332108  0.82914453    -0.79600
O46         O  0.78907491  0.25037394  0.85322806    -0.79700
O47         O  0.71795298  0.25097577  0.67675829    -0.79600
O48         O  0.68441565  0.28702617  0.76148009    -0.79600
O49         O  0.82792485  0.28421643  0.73198675    -0.79700
Co50       Co  0.73266484  0.20336566  0.71921019     1.51500
Co51       Co  0.80168253  0.21310502  0.80702439     1.51700
Co52       Co  0.77407362  0.25743474  0.71820747     1.51600
Co53       Co  0.70558542  0.25128826  0.80587911     1.51500
O54         O  0.75342701  0.23105244  0.76989813    -1.41500
C55         C  0.66761273  0.27164702  0.72966057     1.10000
C56         C  0.85272445  0.27668489  0.76131581     1.10100
C57         C  0.74144732  0.27297509  0.65288818     1.10000
C58         C  0.76711070  0.28169598  0.85732745     1.10000
O59         O  0.66686929  0.73080555  0.18722642    -0.79600
O60         O  0.82977712  0.76322213  0.18915853    -0.79600
O61         O  0.70566544  0.82025234  0.22886819    -0.79600
O62         O  0.78761019  0.66379622  0.22991766    -0.79600
O63         O  0.76195396  0.82088239  0.18955404    -0.79700
O64         O  0.73319982  0.67944445  0.19205335    -0.79600
O65         O  0.84922430  0.71788915  0.23608796    -0.79600
O66         O  0.67514161  0.78902421  0.22122948    -0.79600
C67         C  0.65294880  0.76521104  0.19793910     1.10100
C68         C  0.85593898  0.73819553  0.20361255     1.10000
C69         C  0.73007590  0.83857956  0.20327934     1.10100
C70         C  0.76121180  0.65475187  0.20322076     1.10000
O71         O  0.70303378  0.68797798  0.25803663    -0.79600
O72         O  0.78553960  0.84397039  0.26773168    -0.79700
O73         O  0.66085691  0.77744165  0.29543963    -0.79600
O74         O  0.82127811  0.74390197  0.31324053    -0.79600
O75         O  0.84740430  0.78863545  0.26935564    -0.79700
O76         O  0.67273684  0.71907083  0.26278108    -0.79600
O77         O  0.75402316  0.68640214  0.30401019    -0.79600
O78         O  0.72729336  0.82818176  0.29900069    -0.79700
Co79       Co  0.71726934  0.73378613  0.21658516     1.51500
Co80       Co  0.80316613  0.80067596  0.22920879     1.51700
Co81       Co  0.71422214  0.77431242  0.27194450     1.51600
Co82       Co  0.80017574  0.70659950  0.27031470     1.51500
O83         O  0.76589528  0.75374901  0.24731222    -1.41500
C84         C  0.72431518  0.66887481  0.28576540     1.10000
C85         C  0.75632693  0.85296015  0.29143121     1.10100
C86         C  0.64873457  0.74236977  0.28477735     1.10000
C87         C  0.85014602  0.76726943  0.30174951     1.10000
C88         C  0.51022492  0.01145018  0.04670399     0.02800
C89         C  0.47917104  0.98232370  0.04594636     0.02800
C90         C  0.45090905  0.98169817  0.01365690     0.02800
C91         C  0.45299340  0.01132189  0.98287193     0.02800
C92         C  0.48358809  0.04094687  0.98374889     0.02800
C93         C  0.51232403  0.04070950  0.01558022     0.02800
C94         C  0.68989553  0.02902212  0.20412477     0.78900
N95         N  0.71036660  0.99276694  0.20966178    -0.77600
C96         C  0.69743038  0.95874715  0.18856893     0.83200
N97         N  0.66495710  0.96169024  0.16291166    -0.77500
C98         C  0.64492925  0.99726602  0.15793493     0.83300
N99         N  0.65749910  0.03048391  0.17848187    -0.79200
C100        C  0.71098730  0.16712809  0.97916231     0.80700
N101        N  0.67833622  0.14206364  0.97965945    -0.77600
C102        C  0.65278399  0.14129312  0.01229507     0.83200
N103        N  0.65973701  0.16535907  0.04490140    -0.77500
C104        C  0.69192190  0.19063070  0.04559071     0.83300
N105        N  0.71808289  0.19216398  0.01236160    -0.79200
C106        C  0.30656474  0.03530542  0.79731089     0.80700
N107        N  0.32959732  0.03475300  0.83165381    -0.77600
C108        C  0.35217863  0.00199830  0.84137097     0.83200
N109        N  0.35201247  0.96920403  0.81663733    -0.77500
C110        C  0.32894402  0.96864118  0.78214956     0.83300
N111        N  0.30557763  0.00190853  0.77209540    -0.79200
C112        C  0.53176903  0.17386695  0.78793176     0.80700
N113        N  0.52977584  0.14868679  0.82090814    -0.77600
C114        C  0.49540065  0.14623199  0.84399667     0.83200
N115        N  0.46260415  0.16897779  0.83405565    -0.77500
C116        C  0.46333948  0.19452206  0.80168025     0.83300
N117        N  0.49827011  0.19746622  0.77805949    -0.79200
C118        C  0.46348213  0.80564562  0.20344057     0.80700
N119        N  0.50008169  0.78563272  0.20760064    -0.77600
C120        C  0.53396495  0.80056638  0.18774750     0.83200
N121        N  0.53069438  0.83404340  0.16405399    -0.77500
C122        C  0.49462766  0.85354726  0.16048070     0.83300
N123        N  0.46127125  0.83943629  0.18010141    -0.79200
C124        C  0.30769855  0.79533268  0.04278532     0.80700
N125        N  0.30305470  0.77222389  0.00754242    -0.77600
C126        C  0.32193365  0.78439349  0.97137111     0.83200
N127        N  0.34448170  0.81881705  0.97127936    -0.77500
C128        C  0.34845149  0.84147929  0.00574705     0.83300
N129        N  0.33012086  0.82958012  0.04100307    -0.79200
C130        C  0.96665799  0.46867071  0.99160249     0.02800
C131        C  0.99765580  0.46629250  0.96213886     0.02800
C132        C  0.02854469  0.49549899  0.96159704     0.02800
C133        C  0.02823949  0.52726311  0.98995858     0.02800
C134        C  0.99663399  0.52986745  0.01862154     0.02800
C135        C  0.96584061  0.50063716  0.01963146     0.02800
C136        C  0.19981831  0.68941992  0.95663423     0.80700
N137        N  0.22309302  0.69521666  0.99158082    -0.77600
C138        C  0.21479435  0.67271557  0.02649115     0.83200
N139        N  0.18374761  0.64562409  0.02581738    -0.77500
C140        C  0.16087329  0.64029928  0.99150014     0.83300
N141        N  0.16909836  0.66217108  0.95728804    -0.79200
C142        C  0.19830327  0.54133247  0.80371354     0.80700
N143        N  0.16719323  0.53681531  0.83042342    -0.77600
C144        C  0.16153989  0.50158953  0.85066626     0.83200
N145        N  0.18696517  0.47009504  0.84427581    -0.77500
C146        C  0.21802279  0.47314185  0.81711608     0.83300
N147        N  0.22408429  0.50909785  0.79616984    -0.79200
C148        C  0.96859891  0.70039780  0.18160521     0.80700
N149        N  0.96800055  0.67322094  0.15065913    -0.77600
C150        C  0.99802191  0.64547406  0.14707483     0.83200
N151        N  0.02896149  0.64473544  0.17443555    -0.77500
C152        C  0.03049770  0.67149579  0.20556076     0.83300
N153        N  0.00013451  0.69996588  0.20959794    -0.79200
C154        C  0.79426431  0.53908110  0.18389968     0.80700
N155        N  0.79001572  0.50612968  0.20975303    -0.77600
C156        C  0.81536591  0.47311351  0.20486233     0.83200
N157        N  0.84383364  0.47362164  0.17478160    -0.77500
C158        C  0.84785076  0.50592716  0.14940721     0.83300
N159        N  0.82308277  0.53839703  0.15409721    -0.79200
C160        C  0.03709494  0.28645757  0.81113813     0.80700
N161        N  0.03496762  0.31643815  0.83919148    -0.77600
C162        C  0.00085116  0.33907369  0.84327153     0.83200
N163        N  0.96820780  0.33175808  0.81890262    -0.77500
C164        C  0.96917004  0.30195780  0.79045677     0.83300
N165        N  0.00393730  0.27876873  0.78620666    -0.79200
C166        C  0.81907082  0.28887458  0.03872558     0.80700
N167        N  0.84671052  0.31914821  0.03727325    -0.77600
C168        C  0.84853877  0.34393624  0.00429136     0.83200
N169        N  0.82296910  0.33849131  0.97226911    -0.77500
C170        C  0.79532993  0.30828844  0.97267437     0.83300
N171        N  0.79290850  0.28292807  0.00619104    -0.79200
C172        C  0.55142717  0.48083559  0.51884137     0.02800
C173        C  0.51951914  0.47885018  0.54741922     0.02800
C174        C  0.48872940  0.50819417  0.54681227     0.02800
C175        C  0.48997575  0.53987917  0.51816325     0.02800
C176        C  0.52205708  0.54204662  0.48983438     0.02800
C177        C  0.55270138  0.51245133  0.49007316     0.02800
C178        C  0.47771914  0.28273137  0.67654416     0.80700
N179        N  0.51270347  0.26999978  0.69689842    -0.77600
C180        C  0.54840319  0.29221647  0.69256915     0.83200
N181        N  0.54815037  0.32601391  0.66908878    -0.77500
C182        C  0.51392336  0.33818492  0.64944211     0.83300
N183        N  0.47917864  0.31652077  0.65314334    -0.79200
C184        C  0.31205764  0.69673984  0.53215239     0.80700
N185        N  0.29193326  0.70233310  0.49505199    -0.77600
C186        C  0.30396776  0.68020106  0.46091531     0.83200
N187        N  0.33531440  0.65356013  0.46471551    -0.77500
C188        C  0.35487386  0.64855066  0.50118042     0.83300
N189        N  0.34305056  0.67002302  0.53432439    -0.79200
C190        C  0.69390379  0.54820879  0.30146967     0.80700
N191        N  0.67330909  0.54544506  0.33728618    -0.77600
C192        C  0.65586752  0.51035843  0.34922817     0.83200
N193        N  0.65887329  0.47713626  0.32519749    -0.77500
C194        C  0.67953466  0.47814050  0.28923005     0.83300
N195        N  0.69753136  0.51418177  0.27673895    -0.79200
C196        C  0.53490592  0.69903461  0.31062644     0.80700
N197        N  0.49850407  0.70251613  0.28989695    -0.77600
C198        C  0.46534961  0.68061297  0.30320099     0.83200
N199        N  0.46909002  0.65570020  0.33609254    -0.77500
C200        C  0.50500104  0.65282584  0.35646191     0.83300
N201        N  0.53761921  0.67446146  0.34378444    -0.79200
C202        C  0.30009982  0.53574852  0.68734006     0.80700
N203        N  0.33375191  0.53512386  0.66353356    -0.77600
C204        C  0.34255778  0.50262738  0.64015013     0.83200
N205        N  0.31744027  0.47021112  0.64018455    -0.77500
C206        C  0.28352286  0.46974724  0.66386927     0.83300
N207        N  0.27464847  0.50260381  0.68832199    -0.79200
C208        C  0.67708104  0.28534879  0.46826535     0.80700
N209        N  0.65543586  0.32019304  0.46963527    -0.77600
C210        C  0.65540434  0.34331590  0.50389826     0.83200
N211        N  0.67671580  0.33147587  0.53740547    -0.77500
C212        C  0.69819484  0.29655474  0.53716062     0.83300
N213        N  0.69888984  0.27307200  0.50226873    -0.79200
C214        C  0.03958069  0.00921397  0.51838568     0.02800
C215        C  0.04065977  0.97903900  0.48846891     0.02800
C216        C  0.01084322  0.97829260  0.45785128     0.02800
C217        C  0.98000333  0.00742555  0.45699509     0.02800
C218        C  0.97967894  0.03823867  0.48626892     0.02800
C219        C  0.00955633  0.03928481  0.51699830     0.02800
C220        C  0.96516699  0.18391505  0.70178800     0.80700
N221        N  0.00061348  0.20372991  0.71432870    -0.77600
C222        C  0.03696719  0.19715212  0.69305901     0.83200
N223        N  0.03685150  0.17185446  0.66049379    -0.77500
C224        C  0.00246438  0.15258267  0.64871569     0.83300
N225        N  0.96715740  0.15848028  0.66936278    -0.79200
C226        C  0.19575198  0.04243017  0.69356168     0.80700
N227        N  0.20268206  0.00850473  0.71750011    -0.77600
C228        C  0.18014808  0.97386334  0.71007392     0.83200
N229        N  0.15229732  0.97373825  0.67924575    -0.77500
C230        C  0.14643667  0.00714075  0.65582195     0.83300
N231        N  0.16802322  0.04093879  0.66322566    -0.79200
C232        C  0.20508094  0.80864273  0.46419733     0.80700
N233        N  0.17897839  0.84043012  0.46308010    -0.77600
C234        C  0.15453066  0.84860651  0.49556610     0.83200
N235        N  0.15610173  0.82503991  0.52951324    -0.77500
C236        C  0.18196066  0.79333998  0.53175046     0.83300
N237        N  0.20694654  0.78465413  0.49888955    -0.79200
C238        C  0.79864580  0.18356625  0.53147220     0.80700
N239        N  0.82964897  0.15687994  0.52844400    -0.77600
C240        C  0.84919107  0.15118431  0.49238934     0.83200
N241        N  0.83778360  0.17221276  0.45869510    -0.77500
C242        C  0.80668671  0.19893799  0.46041957     0.83300
N243        N  0.78645782  0.20505881  0.49712684    -0.79200
C244        C  0.80316022  0.03787530  0.30543332     0.80700
N245        N  0.77754952  0.00513078  0.29952026    -0.77600
C246        C  0.78743851  0.96822087  0.31718060     0.83200
N247        N  0.82182701  0.96500505  0.34026364    -0.77500
C248        C  0.84687843  0.99723771  0.34516777     0.83300
N249        N  0.83741625  0.03310461  0.32777376    -0.79200
C250        C  0.03043620  0.80960425  0.29311974     0.80700
N251        N  0.03087840  0.84210885  0.31809449    -0.77600
C252        C  0.99933940  0.84961876  0.34359304     0.83200
N253        N  0.96688086  0.82450208  0.34431587    -0.77500
C254        C  0.96550131  0.79176642  0.31967517     0.83300
N255        N  0.99752442  0.78375553  0.29359247    -0.79200
O256        O  0.26090606  0.17750021  0.68290549    -0.79600
O257        O  0.23544866  0.32620491  0.67673767    -0.79600
O258        O  0.17946243  0.20983419  0.73525893    -0.79600
O259        O  0.34567735  0.28883424  0.71569998    -0.79600
O260        O  0.17542710  0.26115861  0.69010946    -0.79700
O261        O  0.33080375  0.23517071  0.67791607    -0.79600
O262        O  0.28605263  0.34905413  0.71616344    -0.79600
O263        O  0.21010350  0.18002535  0.72724151    -0.79600
C264        C  0.22994891  0.16093001  0.69915858     1.10100
C265        C  0.26125456  0.35363768  0.68627634     1.10000
C266        C  0.15854697  0.23135624  0.70875903     1.10100
C267        C  0.35594090  0.26249253  0.68915284     1.10000
O268        O  0.33621720  0.21344112  0.75159919    -0.79600
O269        O  0.16376282  0.29126854  0.76832351    -0.79700
O270        O  0.23415222  0.16743843  0.79740844    -0.79600
O271        O  0.26639923  0.33007917  0.79898933    -0.79600
O272        O  0.21867658  0.35260948  0.75676238    -0.79700
O273        O  0.28874026  0.16869042  0.75567645    -0.79600
O274        O  0.32573715  0.26388789  0.79526974    -0.79600
O275        O  0.18084037  0.23420541  0.80077012    -0.79700
Co276      Co  0.28684144  0.21938464  0.71747078     1.51500
Co277      Co  0.20252017  0.30426942  0.72308763     1.51700
Co278      Co  0.23270027  0.21963220  0.77058389     1.51600
Co279      Co  0.30109012  0.30449444  0.75572024     1.51500
O280        O  0.25186297  0.26695436  0.73848225    -1.41500
C281        C  0.34795428  0.23481634  0.78153212     1.10000
C282        C  0.15576579  0.26292431  0.79329506     1.10100
C283        C  0.26573546  0.15019959  0.78214207     1.10000
C284        C  0.24234700  0.35808928  0.78710337     1.10000
O285        O  0.75973838  0.17770056  0.29853823    -0.79600
O286        O  0.76439310  0.35035615  0.21600795    -0.79600
O287        O  0.81145643  0.23714891  0.18266062    -0.79600
O288        O  0.80036816  0.26337674  0.32321399    -0.79600
O289        O  0.76933142  0.28623830  0.16285858    -0.79700
O290        O  0.75549965  0.21176407  0.32488317    -0.79600
O291        O  0.80658649  0.33200740  0.26621812    -0.79600
O292        O  0.80537566  0.17717105  0.24912628    -0.79600
C293        C  0.78896739  0.15937752  0.27947857     1.10100
C294        C  0.79458860  0.35769354  0.23913101     1.10000
C295        C  0.79941593  0.26280730  0.15611848     1.10100
C296        C  0.78384929  0.23375681  0.34209572     1.10000
O297        O  0.68580131  0.23400586  0.32353799    -0.79600
O298        O  0.69047199  0.26010857  0.18333961    -0.79700
O299        O  0.73492339  0.16563880  0.21836923    -0.79600
O300        O  0.72726243  0.35265193  0.28822755    -0.79600
O301        O  0.68513398  0.33182995  0.23925851    -0.79700
O302        O  0.69322015  0.16409315  0.27276755    -0.79600
O303        O  0.72194283  0.28822748  0.34286652    -0.79600
O304        O  0.73712772  0.21236551  0.17232968    -0.79700
Co305      Co  0.71771539  0.21803161  0.27322484     1.51500
Co306      Co  0.72781377  0.30358901  0.20487300     1.51700
Co307      Co  0.77007123  0.21863534  0.22246887     1.51600
Co308      Co  0.76377194  0.30566043  0.30166084     1.51500
O309        O  0.74685234  0.26737105  0.25444102    -1.41500
C310        C  0.69516577  0.26123764  0.34977128     1.10000
C311        C  0.70592079  0.23198097  0.16093067     1.10100
C312        C  0.70893422  0.14641411  0.24137513     1.10000
C313        C  0.69753033  0.35941322  0.26413242     1.10000
O314        O  0.33549582  0.68061705  0.22663247    -0.79600
O315        O  0.17327768  0.67167470  0.25945993    -0.79600
O316        O  0.29317843  0.72011706  0.31890579    -0.79600
O317        O  0.21281193  0.71511449  0.15668555    -0.79600
O318        O  0.24010433  0.67738761  0.31969853    -0.79700
O319        O  0.27074412  0.68325166  0.17173904    -0.79600
O320        O  0.15096277  0.71594603  0.21276452    -0.79600
O321        O  0.32377947  0.71249125  0.28615591    -0.79600
C322        C  0.34756132  0.69070455  0.26247453     1.10100
C323        C  0.14580166  0.68447880  0.23468753     1.10000
C324        C  0.27065060  0.69355112  0.33791557     1.10100
C325        C  0.24195147  0.69212557  0.14662934     1.10000
O326        O  0.29545664  0.74915970  0.18333402    -0.79600
O327        O  0.21065376  0.75280106  0.34033553    -0.79700
O328        O  0.33431329  0.78660342  0.27494739    -0.79600
O329        O  0.17244606  0.79389625  0.23901264    -0.79600
O330        O  0.14941095  0.74903808  0.28455263    -0.79700
O331        O  0.32542274  0.75432808  0.21521176    -0.79600
O332        O  0.24077198  0.79012745  0.18076977    -0.79600
O333        O  0.26651620  0.78748363  0.32391177    -0.79700
Co334      Co  0.28326969  0.70627829  0.22854630     1.51500
Co335      Co  0.19647093  0.71304509  0.29724762     1.51700
Co336      Co  0.28266139  0.76037912  0.27052786     1.51600
Co337      Co  0.19721429  0.75328132  0.20107190     1.51500
O338        O  0.23273856  0.73312727  0.24926780    -1.41500
C339        C  0.27272022  0.77528296  0.16388512     1.10000
C340        C  0.23778159  0.77856295  0.34884496     1.10100
C341        C  0.34794479  0.77657727  0.23977953     1.10000
C342        C  0.14472129  0.78099117  0.26339414     1.10000
C343        C  0.10384487  0.79710841  0.26348005    -0.12700
C344        C  0.06796209  0.80151789  0.27147552    -0.14300
C345        C  0.79512261  0.07930299  0.29193936    -0.12700
C346        C  0.79524176  0.11607718  0.28691120    -0.14300
C347        C  0.79275689  0.22627883  0.38525126    -0.12700
C348        C  0.79595103  0.21792620  0.42163395    -0.14300
C349        C  0.23648272  0.79396768  0.39062456    -0.12700
C350        C  0.22693136  0.79968860  0.42637559    -0.14300
C351        C  0.21540803  0.08150598  0.69812123    -0.12700
C352        C  0.22264093  0.11764221  0.69495732    -0.14300
C353        C  0.07740062  0.21465221  0.70299022    -0.12700
C354        C  0.11428009  0.22272313  0.70387540    -0.14300
C355        C  0.98008634  0.88100832  0.40945595    -0.12800
C356        C  0.00165307  0.88311273  0.37221454     0.09300
C357        C  0.02698954  0.91637091  0.36351227    -0.12800
C358        C  0.03061747  0.94739604  0.39196071    -0.12800
C359        C  0.00927864  0.94482506  0.42904799     0.09300
C360        C  0.98422411  0.91171323  0.43803981    -0.12800
H361        H  0.96072913  0.85532255  0.41682230     0.13300
H362        H  0.04369861  0.91841664  0.33478994     0.13300
H363        H  0.04967313  0.97344847  0.38511028     0.13300
H364        H  0.96764528  0.91007112  0.46687363     0.13300
C365        C  0.94965409  0.02101148  0.38862059    -0.12800
C366        C  0.94630253  0.00344133  0.42761186     0.09300
C367        C  0.91163753  0.98088062  0.43846325    -0.12800
C368        C  0.87992179  0.97640540  0.41029859    -0.12800
C369        C  0.88258349  0.99521262  0.37168155     0.09300
C370        C  0.91769105  0.01721876  0.36077226    -0.12800
H371        H  0.97670464  0.03812933  0.38013807     0.13300
H372        H  0.90921712  0.96712324  0.46867150     0.13300
H373        H  0.85261293  0.95998055  0.41931698     0.13300
H374        H  0.91992577  0.03207200  0.33108024     0.13300
C375        C  0.94594780  0.10003799  0.46006130    -0.12800
C376        C  0.94598757  0.06697696  0.48700747     0.09300
C377        C  0.91377676  0.06059475  0.51449947    -0.12800
C378        C  0.88217304  0.08838804  0.51636938    -0.12800
C379        C  0.88215150  0.12196569  0.48986157     0.09300
C380        C  0.91378601  0.12745161  0.46120670    -0.12800
H381        H  0.97081068  0.10454435  0.43843014     0.13300
H382        H  0.91337418  0.03431611  0.53454723     0.13300
H383        H  0.85755826  0.08341806  0.53817465     0.13300
H384        H  0.91403927  0.15323420  0.44049942     0.13300
C385        C  0.98370926  0.06035716  0.58503654    -0.12800
C386        C  0.00708197  0.06919637  0.55009302     0.09300
C387        C  0.02914739  0.10539004  0.54733799    -0.12800
C388        C  0.02788649  0.13281657  0.57979614    -0.12800
C389        C  0.00375015  0.12435445  0.61448992     0.09300
C390        C  0.98147599  0.08818933  0.61688499    -0.12800
H391        H  0.96737482  0.03189497  0.58755553     0.13300
H392        H  0.04760479  0.11198551  0.52042236     0.13300
H393        H  0.04528989  0.16067765  0.57771728     0.13300
H394        H  0.96323251  0.08106205  0.64381768     0.13300
C395        C  0.08477274  0.98148008  0.62031525    -0.12800
C396        C  0.11921444  0.00659462  0.62061734     0.09300
C397        C  0.12777312  0.03201190  0.58687605    -0.12800
C398        C  0.10209758  0.03219711  0.55303109    -0.12800
C399        C  0.06761795  0.00747368  0.55307100     0.09300
C400        C  0.05867900  0.98222194  0.58661155    -0.12800
H401        H  0.07768809  0.96201618  0.64635105     0.13300
H402        H  0.15443241  0.05142421  0.58651229     0.13300
H403        H  0.10874695  0.05184901  0.52702138     0.13300
H404        H  0.03149775  0.96353574  0.58664644     0.13300
C405        C  0.10786716  0.94953238  0.47040560    -0.12800
C406        C  0.07061232  0.94624818  0.49118024     0.09300
C407        C  0.06092972  0.91128595  0.51356653    -0.12800
C408        C  0.08870210  0.87954577  0.51536667    -0.12800
C409        C  0.12591396  0.88235734  0.49408291     0.09300
C410        C  0.13546034  0.91746741  0.47160087    -0.12800
H411        H  0.11522580  0.97667398  0.45299248     0.13300
H412        H  0.03187231  0.90863764  0.52930697     0.13300
H413        H  0.08077431  0.85251011  0.53266966     0.13300
H414        H  0.16423167  0.92015144  0.45535042     0.13300
C415        C  0.68091282  0.25910221  0.39191674    -0.12700
C416        C  0.67871651  0.26507757  0.42877710    -0.14300
C417        C  0.26296136  0.43102202  0.66717685    -0.12700
C418        C  0.25789379  0.39465595  0.67057974    -0.14300
C419        C  0.42535692  0.68350262  0.28444151    -0.12700
C420        C  0.38963362  0.68401002  0.27437540    -0.14300
C421        C  0.68286208  0.43893955  0.26789203    -0.12700
C422        C  0.68452840  0.40213494  0.26185574    -0.14300
C423        C  0.27864215  0.68609609  0.38212706    -0.12700
C424        C  0.28658982  0.68504759  0.41922473    -0.14300
C425        C  0.39979472  0.26016343  0.67970512    -0.12700
C426        C  0.43712387  0.26417959  0.67993196    -0.14300
C427        C  0.39239840  0.58669766  0.47979245    -0.12800
C428        C  0.38950437  0.62085232  0.50513980     0.09300
C429        C  0.41952884  0.62803793  0.53531204    -0.12800
C430        C  0.45238085  0.60161013  0.53963769    -0.12800
C431        C  0.45506471  0.56762299  0.51426649     0.09300
C432        C  0.42477247  0.55983608  0.48480625    -0.12800
H433        H  0.36928689  0.58039665  0.45675732     0.13300
H434        H  0.41785714  0.65430324  0.55518639     0.13300
H435        H  0.47566309  0.60756497  0.56259455     0.13300
H436        H  0.42643512  0.53305642  0.46562446     0.13300
C437        C  0.41862454  0.48281580  0.55694583    -0.12800
C438        C  0.45265581  0.50337601  0.57262454     0.09300
C439        C  0.45120399  0.52222401  0.61098090    -0.12800
C440        C  0.41509625  0.52159626  0.63331704    -0.12800
C441        C  0.38066080  0.50160052  0.61743275     0.09300
C442        C  0.38276607  0.48140063  0.57965190    -0.12800
H443        H  0.41967174  0.46885349  0.52680964     0.13300
H444        H  0.47754471  0.53837144  0.62285685     0.13300
H445        H  0.41395017  0.53688764  0.66277199     0.13300
H446        H  0.35631972  0.46594912  0.56707918     0.13300
C447        C  0.49870899  0.55844956  0.41957464    -0.12800
C448        C  0.51917992  0.57055045  0.45536303     0.09300
C449        C  0.53518267  0.60965153  0.45883184    -0.12800
C450        C  0.53071375  0.63677327  0.42623871    -0.12800
C451        C  0.50928592  0.62497097  0.39080000     0.09300
C452        C  0.49319627  0.58582484  0.38758137    -0.12800
H453        H  0.48649737  0.52804172  0.41687506     0.13300
H454        H  0.55093836  0.61897571  0.48661381     0.13300
H455        H  0.54332657  0.66702364  0.42883297     0.13300
H456        H  0.47710896  0.57628139  0.36006217     0.13300
C457        C  0.57323846  0.48329576  0.42353624    -0.12800
C458        C  0.58130493  0.51040889  0.45558975     0.09300
C459        C  0.61451427  0.53691353  0.45347954    -0.12800
C460        C  0.63962910  0.53648221  0.41893627    -0.12800
C461        C  0.63167416  0.50913123  0.38678684     0.09300
C462        C  0.59870755  0.48221890  0.38953756    -0.12800
H463        H  0.54677282  0.46367172  0.42456338     0.13300
H464        H  0.62036001  0.55830771  0.47810736     0.13300
H465        H  0.66491521  0.55755416  0.41716443     0.13300
H466        H  0.59164726  0.46143345  0.36467989     0.13300
C467        C  0.61842190  0.44742977  0.53116975    -0.12800
C468        C  0.57910615  0.44623022  0.51436237     0.09300
C469        C  0.56549950  0.41203095  0.49293279    -0.12800
C470        C  0.59119585  0.37896708  0.48813876    -0.12800
C471        C  0.63022903  0.37953168  0.50580958     0.09300
C472        C  0.64385956  0.41381544  0.52732214    -0.12800
H473        H  0.62893486  0.47394586  0.54765819     0.13300
H474        H  0.53493901  0.41108106  0.48001504     0.13300
H475        H  0.58014910  0.35249937  0.47189965     0.13300
H476        H  0.67405870  0.41448640  0.54108308     0.13300
C477        C  0.48908351  0.41250442  0.56577522    -0.12800
C478        C  0.51643512  0.44381750  0.57503178     0.09300
C479        C  0.54288004  0.44060018  0.60867946    -0.12800
C480        C  0.54208721  0.40598786  0.63312377    -0.12800
C481        C  0.51444334  0.37470266  0.62420213     0.09300
C482        C  0.48766247  0.37826153  0.59065020    -0.12800
H483        H  0.46955221  0.41428678  0.53891574     0.13300
H484        H  0.56447425  0.46459918  0.61548570     0.13300
H485        H  0.56288538  0.40372698  0.65900477     0.13300
H486        H  0.46650733  0.35414431  0.58300777     0.13300
C487        C  0.81567749  0.26796158  0.07752426    -0.12700
C488        C  0.81355919  0.26171919  0.11421027    -0.14300
C489        C  0.07658770  0.26670981  0.80731614    -0.12700
C490        C  0.11333543  0.26079539  0.80614455    -0.14300
C491        C  0.80906573  0.39938223  0.23723424    -0.12700
C492        C  0.81124707  0.43515479  0.22763283    -0.14300
C493        C  0.06779294  0.67135044  0.22919124    -0.12700
C494        C  0.10408809  0.67083890  0.23662466    -0.14300
C495        C  0.24495868  0.39937143  0.80252685    -0.12700
C496        C  0.23914123  0.43544245  0.80814407    -0.14300
C497        C  0.23531555  0.67828863  0.06618938    -0.12700
C498        C  0.24293828  0.68077279  0.10306078    -0.14300
C499        C  0.05654958  0.51230269  0.89351118    -0.12800
C500        C  0.06140382  0.49312243  0.93155920     0.09300
C501        C  0.09852899  0.47501470  0.94257443    -0.12800
C502        C  0.13124695  0.47662916  0.91543273    -0.12800
C503        C  0.12692579  0.49725527  0.87794142     0.09300
C504        C  0.08946525  0.51478306  0.86682562    -0.12800
H505        H  0.02776116  0.52652842  0.88527717     0.13300
H506        H  0.10223451  0.46061767  0.97235547     0.13300
H507        H  0.16023801  0.46318455  0.92425547     0.13300
H508        H  0.08583691  0.53049454  0.83771728     0.13300
C509        C  0.06279358  0.58836221  0.96210645    -0.12800
C510        C  0.06188406  0.55669592  0.99076443     0.09300
C511        C  0.09328529  0.55232594  0.01973424    -0.12800
C512        C  0.12542379  0.57989855  0.02034726    -0.12800
C513        C  0.12676944  0.61155360  0.99141231     0.09300
C514        C  0.09527619  0.61553857  0.96217233    -0.12800
H515        H  0.03850787  0.59177076  0.93961937     0.13300
H516        H  0.09288812  0.52750972  0.04164322     0.13300
H517        H  0.14950932  0.57606639  0.04296941     0.13300
H518        H  0.09552930  0.63983084  0.93967646     0.13300
C519        C  0.01703163  0.55085355  0.08783641    -0.12800
C520        C  0.99802916  0.56046029  0.05057958     0.09300
C521        C  0.97850869  0.59766755  0.04468193    -0.12800
C522        C  0.97784476  0.62556251  0.07657978    -0.12800
C523        C  0.99734250  0.61623117  0.11392562     0.09300
C524        C  0.01699487  0.57883871  0.11939933    -0.12800
H525        H  0.03153676  0.52163739  0.09238078     0.13300
H526        H  0.96345535  0.60466946  0.01575665     0.13300
H527        H  0.96269757  0.65441981  0.07195875     0.13300
H528        H  0.03181976  0.57104253  0.14823038     0.13300
C529        C  0.93924779  0.47595196  0.08645985    -0.12800
C530        C  0.93498356  0.50165541  0.05241149     0.09300
C531        C  0.90262701  0.52928397  0.05027395    -0.12800
C532        C  0.87443094  0.53122663  0.08227391    -0.12800
C533        C  0.87826014  0.50514248  0.11636300     0.09300
C534        C  0.91089442  0.47752322  0.11823115    -0.12800
H535        H  0.96462564  0.45491603  0.08839175     0.13300
H536        H  0.89942743  0.54933688  0.02395182     0.13300
H537        H  0.84941723  0.55263046  0.08006887     0.13300
H538        H  0.91468282  0.45733406  0.14435268     0.13300
C539        C  0.89670124  0.44353875  0.98062510    -0.12800
C540        C  0.93637910  0.43657213  0.99480709     0.09300
C541        C  0.94709409  0.39980232  0.01345983    -0.12800
C542        C  0.91790139  0.36962162  0.01775357    -0.12800
C543        C  0.87832135  0.37618754  0.00267726     0.09300
C544        C  0.86770206  0.41318516  0.98428675    -0.12800
H545        H  0.88847506  0.47226460  0.96663697     0.13300
H546        H  0.97789003  0.39474419  0.02474334     0.13300
H547        H  0.92636428  0.34099420  0.03177531     0.13300
H548        H  0.83700354  0.41853942  0.97286798     0.13300
C549        C  0.96927636  0.43304522  0.90014374    -0.12800
C550        C  0.99790301  0.43322756  0.93214247     0.09300
C551        C  0.02686601  0.40224546  0.93561507    -0.12800
C552        C  0.02786083  0.37151880  0.90651235    -0.12800
C553        C  0.99941229  0.37125220  0.87408320     0.09300
C554        C  0.96987162  0.40203200  0.87126077    -0.12800
H555        H  0.94676693  0.45703231  0.89750502     0.13300
H556        H  0.04868216  0.40203752  0.96073823     0.13300
H557        H  0.05067034  0.34787855  0.90957764     0.13300
H558        H  0.94770489  0.40248917  0.84646176     0.13300
C559        C  0.29081185  0.78538191  0.08349586    -0.12700
C560        C  0.28207156  0.78329622  0.12025706    -0.14300
C561        C  0.42540059  0.79126627  0.22033819    -0.12700
C562        C  0.38986726  0.78545835  0.22910065    -0.14300
C563        C  0.42579611  0.21719409  0.79464044    -0.12700
C564        C  0.39028275  0.22852744  0.79356226    -0.14300
C565        C  0.28500896  0.07262775  0.78929272    -0.12700
C566        C  0.27387228  0.10768531  0.78881627    -0.14300
C567        C  0.69502214  0.22580491  0.11832943    -0.12700
C568        C  0.69616211  0.21425689  0.08281938    -0.14300
C569        C  0.70058185  0.06734830  0.22384771    -0.12700
C570        C  0.70275798  0.10311676  0.23358864    -0.14300
C571        C  0.38738817  0.02515899  0.94813355    -0.12800
C572        C  0.42645364  0.00821039  0.94708184     0.09300
C573        C  0.44071990  0.98805994  0.91206847    -0.12800
C574        C  0.41566128  0.98463213  0.87787566    -0.12800
C575        C  0.37687815  0.00247742  0.87831647     0.09300
C576        C  0.36265629  0.02267316  0.91351001    -0.12800
H577        H  0.37649525  0.04067844  0.97541023     0.13300
H578        H  0.47115171  0.97513159  0.91139999     0.13300
H579        H  0.42701752  0.96929571  0.85067020     0.13300
H580        H  0.33260126  0.03642802  0.91411082     0.13300
C581        C  0.38887586  0.94396307  0.03545500    -0.12800
C582        C  0.42275409  0.94717127  0.00949303     0.09300
C583        C  0.43158576  0.91629030  0.98124523    -0.12800
C584        C  0.40641343  0.88238350  0.97883470    -0.12800
C585        C  0.37293657  0.87859210  0.00550142     0.09300
C586        C  0.36415450  0.90970502  0.03366229    -0.12800
H587        H  0.38217108  0.96759555  0.05762029     0.13300
H588        H  0.45840403  0.91808783  0.96185958     0.13300
H589        H  0.41400903  0.85847371  0.95727427     0.13300
H590        H  0.33838603  0.90738509  0.05443830     0.13300
C591        C  0.54601825  0.10582967  0.03113124    -0.12800
C592        C  0.54772456  0.06739214  0.01344215     0.09300
C593        C  0.58357624  0.05325633  0.99483383    -0.12800
C594        C  0.61784549  0.07788012  0.99351960    -0.12800
C595        C  0.61655228  0.11615325  0.01183743     0.09300
C596        C  0.58058286  0.13016972  0.03066285    -0.12800
H597        H  0.51822704  0.11655659  0.04572995     0.13300
H598        H  0.58488736  0.02317385  0.98163835     0.13300
H599        H  0.64561377  0.06668399  0.97923592     0.13300
H600        H  0.57924315  0.15984100  0.04472473     0.13300
C601        C  0.51816187  0.06241725  0.91921304    -0.12800
C602        C  0.48800453  0.06925089  0.94902800     0.09300
C603        C  0.46069394  0.10152453  0.94473524    -0.12800
C604        C  0.46331614  0.12677373  0.91050309    -0.12800
C605        C  0.49361224  0.12014722  0.88049133     0.09300
C606        C  0.52137029  0.08810531  0.88535208    -0.12800
H607        H  0.53868231  0.03675337  0.92183801     0.13300
H608        H  0.43709006  0.10667642  0.96753574     0.13300
H609        H  0.44162900  0.15143671  0.90756620     0.13300
H610        H  0.54472922  0.08223280  0.86249209     0.13300
C611        C  0.46405305  0.95293695  0.11445578    -0.12800
C612        C  0.48072388  0.94872273  0.07507319     0.09300
C613        C  0.50170601  0.91354218  0.06380416    -0.12800
C614        C  0.50722359  0.88289704  0.09242005    -0.12800
C615        C  0.49059249  0.88687433  0.13188160     0.09300
C616        C  0.46846655  0.92159845  0.14281943    -0.12800
H617        H  0.44801200  0.98039065  0.12307269     0.13300
H618        H  0.51458485  0.91042682  0.03322591     0.13300
H619        H  0.52377212  0.85579219  0.08358428     0.13300
H620        H  0.45534249  0.92459841  0.17329239     0.13300
C621        C  0.57478264  0.97870661  0.06864974    -0.12800
C622        C  0.54412186  0.00741405  0.07612763     0.09300
C623        C  0.54635919  0.03274964  0.11045087    -0.12800
C624        C  0.57929330  0.02932640  0.13739115    -0.12800
C625        C  0.60981722  0.00013788  0.13030251     0.09300
C626        C  0.60719522  0.97464215  0.09597362    -0.12800
H627        H  0.57362943  0.95971823  0.04153040     0.13300
H628        H  0.52284543  0.05524244  0.11607015     0.13300
H629        H  0.58082046  0.04925583  0.16378602     0.13300
H630        H  0.63073313  0.95234334  0.08969087     0.13300
C631        C  0.75582843  0.89493859  0.30575880    -0.12700
C632        C  0.76451209  0.93070584  0.31059244    -0.14300
C633        C  0.72285239  0.88177498  0.19480450    -0.12700
C634        C  0.71520671  0.91817485  0.19343979    -0.14300
C635        C  0.89717104  0.73567918  0.18846305    -0.12700
C636        C  0.93253261  0.72510513  0.18592744    -0.14300
C637        C  0.92737345  0.76996198  0.31937009    -0.12700
C638        C  0.89087138  0.76405470  0.31807080    -0.14300
C639        C  0.71651014  0.62532718  0.29129962    -0.12700
C640        C  0.70928262  0.58881582  0.29167567    -0.14300
C641        C  0.77162060  0.57685500  0.18838230    -0.12700
C642        C  0.76209889  0.61257190  0.19034545    -0.14300
C643        C  0.61034904  0.77470077  0.19108770    -0.12700
C644        C  0.57416492  0.78273539  0.19084483    -0.14300
C645        C  0.60712576  0.72996207  0.29290808    -0.12700
C646        C  0.57216362  0.71880450  0.29789950    -0.14300
C647        C  0.89495409  0.29029266  0.76053889    -0.12700
C648        C  0.93108855  0.29430747  0.76873055    -0.14300
C649        C  0.92381224  0.18862048  0.71991453    -0.12700
C650        C  0.88651840  0.18776736  0.72644807    -0.14300
C651        C  0.74064065  0.17115682  0.90353850    -0.12700
C652        C  0.73304239  0.16957326  0.94030554    -0.14300
C653        C  0.76609054  0.29800147  0.89837489    -0.12700
C654        C  0.77348744  0.30191550  0.93470789    -0.14300
C655        C  0.60838748  0.17835612  0.76054299    -0.12700
C656        C  0.57161245  0.17705506  0.76759638    -0.14300
C657        C  0.62442740  0.27956324  0.71998629    -0.12700
C658        C  0.58809641  0.28177071  0.71074140    -0.14300
C659        C  0.71755765  0.28516375  0.57551274    -0.12700
C660        C  0.72889680  0.28119924  0.61090998    -0.14300
C661        C  0.78102408  0.18775442  0.57227194    -0.12700
C662        C  0.77379282  0.18604980  0.60907311    -0.14300
C663        C  0.31475467  0.75755296  0.89402541    -0.12700
C664        C  0.31727354  0.76415903  0.93123646    -0.14300
C665        C  0.20626790  0.71035014  0.91757617    -0.12700
C666        C  0.20730805  0.72144787  0.88166681    -0.14300
C667        C  0.19197276  0.89890986  0.73730075    -0.12700
C668        C  0.18740034  0.93499200  0.73021394    -0.14300
C669        C  0.32275942  0.89362596  0.75616296    -0.12700
C670        C  0.32608555  0.92995667  0.76138342    -0.14300
C671        C  0.30097132  0.72707173  0.60720989    -0.12700
C672        C  0.30289569  0.71760483  0.57077046    -0.14300
C673        C  0.18519481  0.76714971  0.60822689    -0.12700
C674        C  0.18417207  0.77320769  0.57131512    -0.14300
C675        C  0.29420245  0.57207990  0.71136805    -0.12700
C676        C  0.29563428  0.60636192  0.72482005    -0.14300
C677        C  0.20177894  0.61795478  0.77907564    -0.12700
C678        C  0.20274940  0.58165777  0.78622805    -0.14300
loop_ 
_geom_bond_atom_site_label_1 
_geom_bond_atom_site_label_2 
_geom_bond_distance 
_geom_bond_site_symmetry_2 
_ccdc_geom_bond_type 
O1            C9   1.284       .  A
O1          Co21   1.938       .  S
O2           C10   1.275       .  A
O2          Co22   1.989       .  S
O3           C11   1.264       .  A
O3          Co23   1.980       .  S
O4           C12   1.266       .  A
O4          Co24   2.000       .  S
O5           C11   1.286       .  A
O5          Co22   2.026       .  S
O6           C12   1.282       .  A
O6          Co21   2.041       .  S
O7           C10   1.269       .  A
O7          Co24   2.002       .  S
O8            C9   1.293       .  A
O8          Co23   2.074       .  S
C9          C676   1.445       .  S
C10         C669   1.448       .  S
C11         C671   1.463       .  S
C12         C663   1.472       .  S
O13          C26   1.303       .  A
O13         Co21   2.084       .  S
O14          C27   1.268       .  A
O14         Co22   2.006       .  S
O15          C28   1.264       .  A
O15         Co23   1.974       .  S
O16          C29   1.277       .  A
O16         Co24   2.001       .  S
O17          C29   1.267       .  A
O17         Co22   2.001       .  S
O18          C28   1.289       .  A
O18         Co21   2.075       .  S
O19          C26   1.277       .  A
O19         Co24   1.978       .  S
O20          C27   1.270       .  A
O20         Co23   1.978       .  S
Co21         O25   1.974       .  S
Co22         O25   2.104       .  S
Co23         O25   2.049       .  S
Co24         O25   2.074       .  S
C26         C666   1.458       .  S
C27         C673   1.444       .  S
C28         C677   1.454       .  S
C29         C667   1.455       .  S
O30          C38   1.273       .  A
O30         Co50   1.916       .  S
O31          C39   1.281       .  A
O31         Co51   2.003       .  S
O32          C40   1.301       .  A
O32         Co52   2.086       .  S
O33          C41   1.263       .  A
O33         Co53   1.986       .  S
O34          C40   1.281       .  A
O34         Co51   1.989       .  S
O35          C41   1.278       .  A
O35         Co50   2.035       .  S
O36          C39   1.268       .  A
O36         Co53   1.997       .  S
O37          C38   1.311       .  A
O37         Co52   2.134       .  S
C38         C662   1.456       .  S
C39         C651   1.454       .  S
C40         C650   1.489       .  S
C41         C655   1.464       .  S
O42          C55   1.300       .  A
O42         Co50   2.076       .  S
O43          C56   1.261       .  A
O43         Co51   1.979       .  S
O44          C57   1.271       .  A
O44         Co52   1.913       .  S
O45          C58   1.274       .  A
O45         Co53   1.990       .  S
O46          C58   1.265       .  A
O46         Co51   1.985       .  S
O47          C57   1.309       .  A
O47         Co50   2.140       .  S
O48          C55   1.276       .  A
O48         Co53   1.983       .  S
O49          C56   1.274       .  A
O49         Co52   2.021       .  S
Co50         O54   2.002       .  S
Co51         O54   2.070       .  S
Co52         O54   2.005       .  S
Co53         O54   2.064       .  S
C55         C657   1.470       .  S
C56         C647   1.452       .  S
C57         C660   1.447       .  S
C58         C653   1.438       .  S
O59          C67   1.272       .  A
O59         Co79   1.906       .  S
O60          C68   1.277       .  A
O60         Co80   1.995       .  S
O61          C69   1.300       .  A
O61         Co81   2.077       .  S
O62          C70   1.259       .  A
O62         Co82   1.972       .  S
O63          C69   1.276       .  A
O63         Co80   1.977       .  S
O64          C70   1.277       .  A
O64         Co79   2.031       .  S
O65          C68   1.266       .  A
O65         Co82   1.986       .  S
O66          C67   1.311       .  A
O66         Co81   2.138       .  S
C67         C643   1.445       .  S
C68         C635   1.438       .  S
C69         C633   1.469       .  S
C70         C642   1.454       .  S
O71          C84   1.299       .  A
O71         Co79   2.073       .  S
O72          C85   1.262       .  A
O72         Co80   1.986       .  S
O73          C86   1.271       .  A
O73         Co81   1.908       .  S
O74          C87   1.274       .  A
O74         Co82   1.985       .  S
O75          C87   1.267       .  A
O75         Co80   1.986       .  S
O76          C86   1.311       .  A
O76         Co79   2.145       .  S
O77          C84   1.277       .  A
O77         Co82   1.979       .  S
O78          C85   1.276       .  A
O78         Co81   2.029       .  S
Co79         O83   1.990       .  S
Co80         O83   2.055       .  S
Co81         O83   1.989       .  S
Co82         O83   2.055       .  S
C84         C639   1.469       .  S
C85         C631   1.461       .  S
C86         C645   1.445       .  S
C87         C638   1.437       .  S
C88          C89   1.398   1_545  A
C88          C93   1.396       .  A
C88         C622   1.468       .  S
C89          C90   1.397       .  A
C89         C612   1.455       .  S
C90          C91   1.397   1_564  A
C90         C582   1.471       .  S
C91          C92   1.399       .  A
C91         C572   1.453       .  S
C92          C93   1.396   1_556  A
C92         C602   1.468       .  S
C93         C592   1.456       .  S
C94         C569   1.461       .  S
C94          N95   1.381   1_545  A
C94          N99   1.348       .  A
N95          C96   1.382       .  A
C96         C634   1.467       .  S
C96          N97   1.352       .  A
N97          C98   1.353       .  A
C98         C625   1.459   1_565  S
C98          N99   1.348   1_565  A
C100        C652   1.455       .  S
C100        N101   1.351       .  A
C100        N105   1.379   1_556  A
N101        C102   1.349   1_556  A
C102        C595   1.446       .  S
C102        N103   1.344       .  A
N103        C104   1.343       .  A
C104        C568   1.446       .  S
C104        N105   1.378       .  A
C106        C565   1.441       .  S
C106        N107   1.345       .  A
C106        N111   1.374       .  A
N107        C108   1.345       .  A
C108        C575   1.445       .  S
C108        N109   1.348   1_545  A
N109        C110   1.349       .  A
C110        C670   1.447       .  S
C110        N111   1.375   1_565  A
C112        C656   1.464       .  S
C112        N113   1.354       .  A
C112        N117   1.380       .  A
N113        C114   1.354       .  A
C114        C605   1.463       .  S
C114        N115   1.347       .  A
N115        C116   1.345       .  A
C116        C563   1.455       .  S
C116        N117   1.379       .  A
C118        C561   1.441       .  S
C118        N119   1.373       .  A
C118        N123   1.347       .  A
N119        C120   1.373       .  A
C120        C644   1.443       .  S
C120        N121   1.348       .  A
N121        C122   1.348       .  A
C122        C615   1.442       .  S
C122        N123   1.346       .  A
C124        C559   1.468       .  S
C124        N125   1.384       .  A
C124        N129   1.348       .  A
N125        C126   1.385   1_554  A
C126        C664   1.473       .  S
C126        N127   1.354       .  A
N127        C128   1.353   1_556  A
C128        C585   1.463       .  S
C128        N129   1.349       .  A
C130        C131   1.396       .  A
C130        C135   1.394   1_556  A
C130        C540   1.453       .  S
C131        C132   1.396   1_655  A
C131        C550   1.464       .  S
C132        C133   1.396       .  A
C132        C500   1.453       .  S
C133        C134   1.394   1_456  A
C133        C510   1.468       .  S
C134        C135   1.395       .  A
C134        C520   1.449       .  S
C135        C530   1.467       .  S
C136        C665   1.457       .  S
C136        N137   1.379       .  A
C136        N141   1.348       .  A
N137        C138   1.380   1_556  A
C138        C497   1.464       .  S
C138        N139   1.353       .  A
N139        C140   1.353   1_554  A
C140        C513   1.464       .  S
C140        N141   1.349       .  A
C142        C678   1.452       .  S
C142        N143   1.345       .  A
C142        N147   1.379       .  A
N143        C144   1.346       .  A
C144        C503   1.444       .  S
C144        N145   1.347       .  A
N145        C146   1.349       .  A
C146        C496   1.452       .  S
C146        N147   1.379       .  A
C148        C636   1.440       .  S
C148        N149   1.348       .  A
C148        N153   1.374   1_655  A
N149        C150   1.347       .  A
C150        C523   1.447       .  S
C150        N151   1.346   1_655  A
N151        C152   1.344       .  A
C152        C493   1.440       .  S
C152        N153   1.373       .  A
C154        C641   1.456       .  S
C154        N155   1.378       .  A
C154        N159   1.351       .  A
N155        C156   1.378       .  A
C156        C492   1.458       .  S
C156        N157   1.349       .  A
N157        C158   1.351       .  A
C158        C533   1.463       .  S
C158        N159   1.351       .  A
C160        C489   1.452       .  S
C160        N161   1.348       .  A
C160        N165   1.377       .  A
N161        C162   1.349       .  A
C162        C553   1.461   1_455  S
C162        N163   1.350   1_455  A
N163        C164   1.350       .  A
C164        C648   1.453       .  S
C164        N165   1.377   1_655  A
C166        C487   1.438       .  S
C166        N167   1.348       .  A
C166        N171   1.373       .  A
N167        C168   1.346       .  A
C168        C543   1.443       .  S
C168        N169   1.346   1_554  A
N169        C170   1.345       .  A
C170        C654   1.440       .  S
C170        N171   1.372   1_556  A
C172        C173   1.398       .  A
C172        C177   1.398       .  A
C172        C468   1.464       .  S
C173        C174   1.396       .  A
C173        C478   1.463       .  S
C174        C175   1.397       .  A
C174        C438   1.456       .  S
C175        C176   1.397       .  A
C175        C431   1.468       .  S
C176        C177   1.398       .  A
C176        C448   1.462       .  S
C177        C458   1.460       .  S
C178        C426   1.466       .  S
C178        N179   1.385       .  A
C178        N183   1.347       .  A
N179        C180   1.385       .  A
C180        C658   1.466       .  S
C180        N181   1.348       .  A
N181        C182   1.348       .  A
C182        C481   1.454       .  S
C182        N183   1.348       .  A
C184        C672   1.462       .  S
C184        N185   1.384       .  A
C184        N189   1.344       .  A
N185        C186   1.385       .  A
C186        C424   1.475       .  S
C186        N187   1.355       .  A
N187        C188   1.354       .  A
C188        C428   1.460       .  S
C188        N189   1.346       .  A
C190        C640   1.465       .  S
C190        N191   1.346       .  A
C190        N195   1.386       .  A
N191        C192   1.346       .  A
C192        C461   1.454       .  S
C192        N193   1.350       .  A
N193        C194   1.349       .  A
C194        C421   1.472       .  S
C194        N195   1.386       .  A
C196        C646   1.442       .  S
C196        N197   1.372       .  A
C196        N201   1.348       .  A
N197        C198   1.372       .  A
C198        C419   1.445       .  S
C198        N199   1.350       .  A
N199        C200   1.350       .  A
C200        C451   1.449       .  S
C200        N201   1.347       .  A
C202        C675   1.444       .  S
C202        N203   1.345       .  A
C202        N207   1.374       .  A
N203        C204   1.346       .  A
C204        C441   1.448       .  S
C204        N205   1.348       .  A
N205        C206   1.350       .  A
C206        C417   1.447       .  S
C206        N207   1.376       .  A
C208        C416   1.448       .  S
C208        N209   1.350       .  A
C208        N213   1.373       .  A
N209        C210   1.350       .  A
C210        C471   1.452       .  S
C210        N211   1.348       .  A
N211        C212   1.349       .  A
C212        C659   1.445       .  S
C212        N213   1.374       .  A
C214        C215   1.392   1_545  A
C214        C219   1.396       .  A
C214        C399   1.452       .  S
C215        C216   1.392       .  A
C215        C406   1.461       .  S
C216        C217   1.393   1_465  A
C216        C359   1.449       .  S
C217        C218   1.393       .  A
C217        C366   1.463       .  S
C218        C219   1.396   1_655  A
C218        C376   1.453       .  S
C219        C386   1.462       .  S
C220        C649   1.483       .  S
C220        N221   1.392   1_655  A
C220        N225   1.349       .  A
N221        C222   1.392       .  A
C222        C353   1.479       .  S
C222        N223   1.348       .  A
N223        C224   1.348       .  A
C224        C389   1.452       .  S
C224        N225   1.349   1_455  A
C226        C351   1.448       .  S
C226        N227   1.379       .  A
C226        N231   1.339       .  A
N227        C228   1.381   1_545  A
C228        C668   1.456       .  S
C228        N229   1.353       .  A
N229        C230   1.350   1_565  A
C230        C396   1.448       .  S
C230        N231   1.342       .  A
C232        C350   1.451       .  S
C232        N233   1.352       .  A
C232        N237   1.375       .  A
N233        C234   1.351       .  A
C234        C409   1.454       .  S
C234        N235   1.347       .  A
N235        C236   1.346       .  A
C236        C674   1.445       .  S
C236        N237   1.374       .  A
C238        C661   1.451       .  S
C238        N239   1.346       .  A
C238        N243   1.378       .  A
N239        C240   1.347       .  A
C240        C379   1.448       .  S
C240        N241   1.346       .  A
N241        C242   1.347       .  A
C242        C348   1.447       .  S
C242        N243   1.378       .  A
C244        C345   1.457       .  S
C244        N245   1.380       .  A
C244        N249   1.343       .  A
N245        C246   1.382   1_545  A
C246        C632   1.463       .  S
C246        N247   1.355       .  A
N247        C248   1.352       .  A
C248        C369   1.451       .  S
C248        N249   1.345   1_565  A
C250        C344   1.439       .  S
C250        N251   1.346       .  A
C250        N255   1.373   1_455  A
N251        C252   1.346   1_455  A
C252        C356   1.447   1_655  S
C252        N253   1.347       .  A
N253        C254   1.346       .  A
C254        C637   1.440       .  S
C254        N255   1.373       .  A
O256        C264   1.265       .  A
O256       Co276   1.973       .  S
O257        C265   1.276       .  A
O257       Co277   1.985       .  S
O258        C266   1.306       .  A
O258       Co278   2.109       .  S
O259        C267   1.270       .  A
O259       Co279   2.021       .  S
O260        C266   1.278       .  A
O260       Co277   1.990       .  S
O261        C267   1.274       .  A
O261       Co276   1.996       .  S
O262        C265   1.273       .  A
O262       Co279   2.009       .  S
O263        C264   1.285       .  A
O263       Co278   2.059       .  S
C264        C352   1.454       .  S
C265        C418   1.448       .  S
C266        C354   1.484       .  S
C267        C425   1.469       .  S
O268        C281   1.261       .  A
O268       Co276   1.967       .  S
O269        C282   1.263       .  A
O269       Co277   1.986       .  S
O270        C283   1.279       .  A
O270       Co278   1.927       .  S
O271        C284   1.272       .  A
O271       Co279   1.994       .  S
O272        C284   1.265       .  A
O272       Co277   2.006       .  S
O273        C283   1.294       .  A
O273       Co276   2.079       .  S
O274        C281   1.284       .  A
O274       Co279   2.019       .  S
O275        C282   1.275       .  A
O275       Co278   2.017       .  S
Co276       O280   2.059       .  S
Co277       O280   2.088       .  S
Co278       O280   1.976       .  S
Co279       O280   2.107       .  S
C281        C564   1.453       .  S
C282        C490   1.451       .  S
C283        C566   1.442       .  S
C284        C495   1.454       .  S
O285        C293   1.290       .  A
O285       Co305   2.079       .  S
O286        C294   1.264       .  A
O286       Co306   1.986       .  S
O287        C295   1.268       .  A
O287       Co307   1.967       .  S
O288        C296   1.272       .  A
O288       Co308   1.964       .  S
O289        C295   1.270       .  A
O289       Co306   2.009       .  S
O290        C296   1.304       .  A
O290       Co305   2.092       .  S
O291        C294   1.280       .  A
O291       Co308   2.009       .  S
O292        C293   1.265       .  A
O292       Co307   1.985       .  S
C293        C346   1.462       .  S
C294        C491   1.455       .  S
C295        C488   1.437       .  S
C296        C347   1.451       .  S
O297        C310   1.276       .  A
O297       Co305   2.010       .  S
O298        C311   1.284       .  A
O298       Co306   2.010       .  S
O299        C312   1.296       .  A
O299       Co307   2.096       .  S
O300        C313   1.267       .  A
O300       Co308   2.003       .  S
O301        C313   1.283       .  A
O301       Co306   2.017       .  S
O302        C312   1.283       .  A
O302       Co305   1.951       .  S
O303        C310   1.268       .  A
O303       Co308   1.997       .  S
O304        C311   1.263       .  A
O304       Co307   1.962       .  S
Co305       O309   1.981       .  S
Co306       O309   2.095       .  S
Co307       O309   2.060       .  S
Co308       O309   2.064       .  S
C310        C415   1.447       .  S
C311        C567   1.442       .  S
C312        C570   1.465       .  S
C313        C422   1.473       .  S
O314        C322   1.273       .  A
O314       Co334   1.907       .  S
O315        C323   1.276       .  A
O315       Co335   1.987       .  S
O316        C324   1.299       .  A
O316       Co336   2.081       .  S
O317        C325   1.261       .  A
O317       Co337   1.982       .  S
O318        C324   1.278       .  A
O318       Co335   1.985       .  S
O319        C325   1.278       .  A
O319       Co334   2.037       .  S
O320        C323   1.268       .  A
O320       Co337   1.987       .  S
O321        C322   1.309       .  A
O321       Co336   2.133       .  S
C322        C420   1.446       .  S
C323        C494   1.438       .  S
C324        C423   1.478       .  S
C325        C498   1.464       .  S
O326        C339   1.300       .  A
O326       Co334   2.074       .  S
O327        C340   1.260       .  A
O327       Co335   1.974       .  S
O328        C341   1.270       .  A
O328       Co336   1.903       .  S
O329        C342   1.276       .  A
O329       Co337   1.994       .  S
O330        C342   1.265       .  A
O330       Co335   1.985       .  S
O331        C341   1.311       .  A
O331       Co334   2.144       .  S
O332        C339   1.278       .  A
O332       Co337   1.984       .  S
O333        C340   1.274       .  A
O333       Co336   2.022       .  S
Co334       O338   1.992       .  S
Co335       O338   2.065       .  S
Co336       O338   1.988       .  S
Co337       O338   2.056       .  S
C339        C560   1.472       .  S
C340        C349   1.450       .  S
C341        C562   1.444       .  S
C342        C343   1.438       .  S
C343        C344   1.211       .  T
C345        C346   1.223       .  T
C347        C348   1.216       .  T
C349        C350   1.217       .  T
C351        C352   1.219       .  T
C353        C354   1.235       .  T
C355        C356   1.401   1_655  A
C355        C360   1.382       .  A
C355        H361   1.084       .  S
C356        C357   1.403       .  A
C357        C358   1.385       .  A
C357        H362   1.083       .  S
C358        C359   1.394       .  A
C358        H363   1.084       .  S
C359        C360   1.396   1_455  A
C360        H364   1.083       .  S
C365        C366   1.394       .  A
C365        C370   1.387       .  A
C365        H371   1.085       .  S
C366        C367   1.401   1_545  A
C367        C368   1.390       .  A
C367        H372   1.082       .  S
C368        C369   1.399       .  A
C368        H373   1.085       .  S
C369        C370   1.403   1_565  A
C370        H374   1.082       .  S
C375        C376   1.396       .  A
C375        C380   1.387       .  A
C375        H381   1.084       .  S
C376        C377   1.396       .  A
C377        C378   1.382       .  A
C377        H382   1.082       .  S
C378        C379   1.400       .  A
C378        H383   1.084       .  S
C379        C380   1.403       .  A
C380        H384   1.082       .  S
C385        C386   1.398   1_655  A
C385        C390   1.386       .  A
C385        H391   1.083       .  S
C386        C387   1.398       .  A
C387        C388   1.391       .  A
C387        H392   1.084       .  S
C388        C389   1.403       .  A
C388        H393   1.083       .  S
C389        C390   1.400   1_455  A
C390        H394   1.084       .  S
C395        C396   1.398   1_565  A
C395        C400   1.387       .  A
C395        H401   1.085       .  S
C396        C397   1.405       .  A
C397        C398   1.382       .  A
C397        H402   1.082       .  S
C398        C399   1.392       .  A
C398        H403   1.085       .  S
C399        C400   1.400   1_545  A
C400        H404   1.082       .  S
C405        C406   1.397       .  A
C405        C410   1.390       .  A
C405        H411   1.084       .  S
C406        C407   1.397       .  A
C407        C408   1.386       .  A
C407        H412   1.082       .  S
C408        C409   1.402       .  A
C408        H413   1.084       .  S
C409        C410   1.402       .  A
C410        H414   1.082       .  S
C415        C416   1.215       .  T
C417        C418   1.215       .  T
C419        C420   1.213       .  T
C421        C422   1.231       .  T
C423        C424   1.232       .  T
C425        C426   1.228       .  T
C427        C428   1.400       .  A
C427        C432   1.389       .  A
C427        H433   1.083       .  S
C428        C429   1.407       .  A
C429        C430   1.390       .  A
C429        H434   1.083       .  S
C430        C431   1.395       .  A
C430        H435   1.083       .  S
C431        C432   1.401       .  A
C432        H436   1.083       .  S
C437        C438   1.400       .  A
C437        C442   1.386       .  A
C437        H443   1.083       .  S
C438        C439   1.394       .  A
C439        C440   1.386       .  A
C439        H444   1.084       .  S
C440        C441   1.404       .  A
C440        H445   1.083       .  S
C441        C442   1.399       .  A
C442        H446   1.084       .  S
C447        C448   1.399       .  A
C447        C452   1.385       .  A
C447        H453   1.083       .  S
C448        C449   1.396       .  A
C449        C450   1.391       .  A
C449        H454   1.083       .  S
C450        C451   1.402       .  A
C450        H455   1.083       .  S
C451        C452   1.398       .  A
C452        H456   1.084       .  S
C457        C458   1.398       .  A
C457        C462   1.383       .  A
C457        H463   1.081       .  S
C458        C459   1.396       .  A
C459        C460   1.390       .  A
C459        H464   1.084       .  S
C460        C461   1.405       .  A
C460        H465   1.082       .  S
C461        C462   1.399       .  A
C462        H466   1.085       .  S
C467        C468   1.397       .  A
C467        C472   1.391       .  A
C467        H473   1.082       .  S
C468        C469   1.399       .  A
C469        C470   1.385       .  A
C469        H474   1.084       .  S
C470        C471   1.399       .  A
C470        H475   1.083       .  S
C471        C472   1.403       .  A
C472        H476   1.084       .  S
C477        C478   1.399       .  A
C477        C482   1.387       .  A
C477        H483   1.082       .  S
C478        C479   1.396       .  A
C479        C480   1.388       .  A
C479        H484   1.084       .  S
C480        C481   1.403       .  A
C480        H485   1.083       .  S
C481        C482   1.402       .  A
C482        H486   1.083       .  S
C487        C488   1.210       .  T
C489        C490   1.218       .  T
C491        C492   1.221       .  T
C493        C494   1.211       .  T
C495        C496   1.219       .  T
C497        C498   1.225       .  T
C499        C500   1.395       .  A
C499        C504   1.384       .  A
C499        H505   1.085       .  S
C500        C501   1.399       .  A
C501        C502   1.387       .  A
C501        H506   1.082       .  S
C502        C503   1.399       .  A
C502        H507   1.084       .  S
C503        C504   1.401       .  A
C504        H508   1.082       .  S
C509        C510   1.397       .  A
C509        C514   1.390       .  A
C509        H515   1.084       .  S
C510        C511   1.399   1_556  A
C511        C512   1.390       .  A
C511        H516   1.083       .  S
C512        C513   1.403   1_554  A
C512        H517   1.084       .  S
C513        C514   1.406       .  A
C514        H518   1.082       .  S
C519        C520   1.395   1_455  A
C519        C524   1.380       .  A
C519        H525   1.083       .  S
C520        C521   1.395       .  A
C521        C522   1.387       .  A
C521        H526   1.084       .  S
C522        C523   1.402       .  A
C522        H527   1.083       .  S
C523        C524   1.401   1_655  A
C524        H528   1.084       .  S
C529        C530   1.397       .  A
C529        C534   1.388       .  A
C529        H535   1.083       .  S
C530        C531   1.398       .  A
C531        C532   1.391       .  A
C531        H536   1.084       .  S
C532        C533   1.405       .  A
C532        H537   1.082       .  S
C533        C534   1.404       .  A
C534        H538   1.083       .  S
C539        C540   1.395       .  A
C539        C544   1.384       .  A
C539        H545   1.083       .  S
C540        C541   1.398   1_556  A
C541        C542   1.386       .  A
C541        H546   1.084       .  S
C542        C543   1.400       .  A
C542        H547   1.083       .  S
C543        C544   1.400   1_554  A
C544        H548   1.084       .  S
C549        C550   1.398       .  A
C549        C554   1.389       .  A
C549        H555   1.083       .  S
C550        C551   1.397   1_655  A
C551        C552   1.387       .  A
C551        H556   1.083       .  S
C552        C553   1.404   1_455  A
C552        H557   1.083       .  S
C553        C554   1.404       .  A
C554        H558   1.083       .  S
C559        C560   1.229       .  T
C561        C562   1.212       .  T
C563        C564   1.220       .  T
C565        C566   1.212       .  T
C567        C568   1.215       .  T
C569        C570   1.224       .  T
C571        C572   1.395       .  A
C571        C576   1.387       .  A
C571        H577   1.084       .  S
C572        C573   1.398   1_545  A
C573        C574   1.384       .  A
C573        H578   1.083       .  S
C574        C575   1.398   1_565  A
C574        H579   1.084       .  S
C575        C576   1.403       .  A
C576        H580   1.082       .  S
C581        C582   1.396       .  A
C581        C586   1.391       .  A
C581        H587   1.084       .  S
C582        C583   1.402   1_554  A
C583        C584   1.391       .  A
C583        H588   1.081       .  S
C584        C585   1.401   1_556  A
C584        H589   1.084       .  S
C585        C586   1.405       .  A
C586        H590   1.082       .  S
C591        C592   1.394       .  A
C591        C596   1.387       .  A
C591        H597   1.085       .  S
C592        C593   1.399   1_554  A
C593        C594   1.385       .  A
C593        H598   1.082       .  S
C594        C595   1.397   1_556  A
C594        H599   1.085       .  S
C595        C596   1.404       .  A
C596        H600   1.082       .  S
C601        C602   1.400       .  A
C601        C606   1.390       .  A
C601        H607   1.083       .  S
C602        C603   1.396       .  A
C603        C604   1.389       .  A
C603        H608   1.083       .  S
C604        C605   1.407       .  A
C604        H609   1.083       .  S
C605        C606   1.401       .  A
C606        H610   1.083       .  S
C611        C612   1.397       .  A
C611        C616   1.389       .  A
C611        H617   1.083       .  S
C612        C613   1.397       .  A
C613        C614   1.382       .  A
C613        H618   1.083       .  S
C614        C615   1.398       .  A
C614        H619   1.084       .  S
C615        C616   1.401       .  A
C616        H620   1.083       .  S
C621        C622   1.400   1_565  A
C621        C626   1.388       .  A
C621        H627   1.082       .  S
C622        C623   1.396       .  A
C623        C624   1.391       .  A
C623        H628   1.084       .  S
C624        C625   1.406       .  A
C624        H629   1.082       .  S
C625        C626   1.400   1_545  A
C626        H630   1.084       .  S
C631        C632   1.224       .  T
C633        C634   1.227       .  T
C635        C636   1.211       .  T
C637        C638   1.210       .  T
C639        C640   1.227       .  T
C641        C642   1.220       .  T
C643        C644   1.212       .  T
C645        C646   1.212       .  T
C647        C648   1.218       .  T
C649        C650   1.238       .  T
C651        C652   1.220       .  T
C653        C654   1.211       .  T
C655        C656   1.225       .  T
C657        C658   1.227       .  T
C659        C660   1.214       .  T
C661        C662   1.219       .  T
C663        C664   1.230       .  T
C665        C666   1.221       .  T
C667        C668   1.220       .  T
C669        C670   1.215       .  T
C671        C672   1.225       .  T
C673        C674   1.214       .  T
C675        C676   1.214       .  T
C677        C678   1.219       .  T
