geometry optimzed in LAMMPS
_audit_creation_date              2020-11-30 
_audit_creation_method            'lammps2cif' 
_symmetry_space_group_name_H-M    'P1' 
_symmetry_Int_Tables_number       1 
_symmetry_cell_setting            triclinic 
loop_ 
_symmetry_equiv_pos_as_xyz 
  x,y,z 
_cell_length_a                    33.50071104 
_cell_length_b                    33.952566812831385 
_cell_length_c                    37.461310211476544 
_cell_angle_alpha                 90.31027755185039 
_cell_angle_beta                  90.2225616263906 
_cell_angle_gamma                 91.14718616721218 
loop_ 
_atom_site_label 
_atom_site_type_symbol 
_atom_site_fract_x 
_atom_site_fract_y 
_atom_site_fract_z 
_atom_site_charge 
N1          N  0.49676294  0.44967921  0.77711837    -0.36700
N2          N  0.43137445  0.50533999  0.78973180    -0.57200
N3          N  0.49361399  0.59867707  0.78202772    -0.36700
N4          N  0.56016843  0.50884872  0.78347662    -0.57200
C5          C  0.46449701  0.42504142  0.77832438     0.26900
C6          C  0.52952933  0.42691858  0.77473459     0.26900
C7          C  0.46239333  0.58330173  0.80038925     0.26900
C8          C  0.52675924  0.58453587  0.79773833     0.26900
C9          C  0.40969221  0.47431576  0.77739877     0.35500
C10         C  0.40871357  0.53744776  0.78469738     0.35500
C11         C  0.58163358  0.47981004  0.76868956     0.35500
C12         C  0.58047736  0.54290891  0.77706760     0.35500
C13         C  0.47703870  0.38633613  0.77844352    -0.21900
C14         C  0.51800552  0.38751843  0.77624408    -0.21900
C15         C  0.47587010  0.56360345  0.83022894    -0.21900
C16         C  0.51668088  0.56406294  0.82837381    -0.21900
C17         C  0.37213385  0.48638320  0.76669353    -0.23000
C18         C  0.37173318  0.52651606  0.77092931    -0.23000
C19         C  0.61700078  0.49513909  0.75496371    -0.23000
C20         C  0.61602614  0.53522227  0.75989672    -0.23000
C21         C  0.42450893  0.43607971  0.77204519    -0.18300
C22         C  0.56814954  0.44035315  0.76449213    -0.18300
C23         C  0.56319796  0.58041322  0.77990463    -0.18300
C24         C  0.42463010  0.57623407  0.78508930    -0.18300
H25         H  0.45843002  0.35991275  0.77778897     0.14600
H26         H  0.53695368  0.36222884  0.77355577     0.14600
H27         H  0.45800937  0.54628060  0.84860535     0.14600
H28         H  0.53647708  0.54750446  0.84527085     0.14600
H29         H  0.34843985  0.46854839  0.75476794     0.12800
H30         H  0.34805985  0.54571290  0.76261427     0.12800
H31         H  0.63984027  0.47945039  0.74069718     0.12800
H32         H  0.63771665  0.55646100  0.74993280     0.12800
H33         H  0.49580854  0.47969071  0.77184400     0.26100
H34         H  0.49215538  0.61082081  0.75649642     0.26100
N35         N  0.49215185  0.55006191  0.92352786    -0.36700
N36         N  0.42908640  0.49122829  0.91367957    -0.57200
N37         N  0.49829193  0.40200669  0.92236264    -0.36700
N38         N  0.55959618  0.49608024  0.91974977    -0.57200
C39         C  0.45884374  0.57209261  0.92135382     0.26900
C40         C  0.52393526  0.57513315  0.92009919     0.26900
C41         C  0.46695632  0.41699553  0.90441815     0.26900
C42         C  0.53146880  0.41777618  0.90733944     0.26900
C43         C  0.40689100  0.51993877  0.92799802     0.35500
C44         C  0.40955924  0.45681503  0.92007891     0.35500
C45         C  0.57859136  0.52831889  0.93283774     0.35500
C46         C  0.58142231  0.46473120  0.92940580     0.35500
C47         C  0.46944612  0.61094313  0.91474018    -0.21900
C48         C  0.51043402  0.61277513  0.91333678    -0.21900
C49         C  0.48029209  0.43816108  0.87516858    -0.21900
C50         C  0.52118704  0.43825853  0.87675501    -0.21900
C51         C  0.37156819  0.50413078  0.94138527    -0.23000
C52         C  0.37332906  0.46395802  0.93647259    -0.23000
C53         C  0.61360491  0.51752961  0.94989380    -0.23000
C54         C  0.61531201  0.47712452  0.94777557    -0.23000
C55         C  0.42014798  0.55947088  0.93174033    -0.18300
C56         C  0.56376519  0.56697622  0.93052580    -0.18300
C57         C  0.56660211  0.42557482  0.92710405    -0.18300
C58         C  0.42865451  0.42004901  0.91919605    -0.18300
H59         H  0.44970890  0.63573209  0.91316983     0.14600
H60         H  0.52840318  0.63943852  0.91066635     0.14600
H61         H  0.46248534  0.45512550  0.85687031     0.14600
H62         H  0.54092950  0.45582316  0.86011703     0.14600
H63         H  0.34834096  0.51953421  0.95540385     0.12800
H64         H  0.35202135  0.44234016  0.94644584     0.12800
H65         H  0.63479095  0.53642722  0.96398073     0.12800
H66         H  0.63767254  0.45891997  0.95998578     0.12800
H67         H  0.49313969  0.52133894  0.93310477     0.26100
H68         H  0.49710266  0.38888824  0.94750641     0.26100
N69         N  0.49631405  0.09946763  0.41076578    -0.36700
N70         N  0.55751348  0.09681552  0.35544408    -0.57200
N71         N  0.49231950  0.09867854  0.30311312    -0.36700
N72         N  0.43115003  0.09593610  0.35863296    -0.57200
C73         C  0.52963564  0.09672884  0.43097185     0.26900
C74         C  0.46463973  0.09457531  0.43263027     0.26900
C75         C  0.52399268  0.09453756  0.28117339     0.26900
C76         C  0.45887502  0.09705103  0.28273159     0.26900
C77         C  0.58035766  0.10852352  0.38347623     0.35500
C78         C  0.57876418  0.10571635  0.32590657     0.35500
C79         C  0.40982089  0.10390190  0.38827812     0.35500
C80         C  0.40769719  0.10520175  0.33060502     0.35500
C81         C  0.51899458  0.08949253  0.46609078    -0.21900
C82         C  0.47799460  0.08778528  0.46707444    -0.21900
C83         C  0.51035091  0.08955317  0.24639124    -0.21900
C84         C  0.46940648  0.09158534  0.24733405    -0.21900
C85         C  0.61685830  0.12338508  0.37176985    -0.23000
C86         C  0.61585231  0.12160738  0.33528488    -0.23000
C87         C  0.37189891  0.11599957  0.37902674    -0.23000
C88         C  0.37057715  0.11692049  0.34248789    -0.23000
C89         C  0.56877151  0.10641221  0.41958694    -0.18300
C90         C  0.42452708  0.10223849  0.42363672    -0.18300
C91         C  0.41965394  0.10509370  0.29445411    -0.18300
C92         C  0.56465285  0.10158318  0.29049767    -0.18300
H93         H  0.53865228  0.08757943  0.48897815     0.14600
H94         H  0.46000851  0.08417933  0.49081992     0.14600
H95         H  0.52820557  0.08692308  0.22250606     0.14600
H96         H  0.44970575  0.09053897  0.22436984     0.14600
H97         H  0.64134966  0.13510568  0.38778069     0.12800
H98         H  0.63931035  0.13198343  0.31768695     0.12800
H99         H  0.34811504  0.12460772  0.39673288     0.12800
H100        H  0.34551567  0.12629041  0.32654165     0.12800
H101        H  0.49529530  0.11134108  0.38546088     0.26100
H102        H  0.49367309  0.10844728  0.32919879     0.26100
N103        N  0.87988953  0.49682384  0.29442868    -0.36700
N104        N  0.87904049  0.55592262  0.35025023    -0.57200
N105        N  0.88171295  0.49622549  0.40553067    -0.36700
N106        N  0.88115980  0.43713316  0.34982145    -0.57200
C107        C  0.86694541  0.52834711  0.27596082     0.26900
C108        C  0.86851398  0.46423891  0.27579835     0.26900
C109        C  0.87040720  0.52785805  0.42467855     0.26900
C110        C  0.87021522  0.46403713  0.42423335     0.26900
C111        C  0.88257458  0.57960758  0.32157087     0.35500
C112        C  0.88416268  0.57925148  0.37923121     0.35500
C113        C  0.88586483  0.41394918  0.32094768     0.35500
C114        C  0.88505980  0.41364038  0.37843855     0.35500
C115        C  0.84874385  0.51567558  0.24452847    -0.21900
C116        C  0.84969814  0.47522914  0.24442258    -0.21900
C117        C  0.85337028  0.51566108  0.45658600    -0.21900
C118        C  0.85324935  0.47535874  0.45628851    -0.21900
C119        C  0.89096757  0.61797848  0.33233812    -0.23000
C120        C  0.89207172  0.61773970  0.36898367    -0.23000
C121        C  0.89380099  0.37570761  0.33129265    -0.23000
C122        C  0.89328731  0.37553156  0.36785593    -0.23000
C123        C  0.87115087  0.56827366  0.28670534    -0.18300
C124        C  0.87438499  0.42481895  0.28634647    -0.18300
C125        C  0.87419324  0.42463189  0.41313125    -0.18300
C126        C  0.87464342  0.56751931  0.41417896    -0.18300
H127        H  0.83547621  0.53365568  0.22406229     0.14600
H128        H  0.83741860  0.45610682  0.22375323     0.14600
H129        H  0.84127494  0.53383509  0.47759093     0.14600
H130        H  0.84104373  0.45655094  0.47695315     0.14600
H131        H  0.89367086  0.64377373  0.31560689     0.12800
H132        H  0.89572509  0.64330387  0.38615954     0.12800
H133        H  0.89692019  0.35010301  0.31427500     0.12800
H134        H  0.89617444  0.34988934  0.38464513     0.12800
H135        H  0.89752370  0.49751020  0.31735081     0.26100
H136        H  0.89829906  0.49673032  0.38211880     0.26100
N137        N  0.50745889  0.87682529  0.29525519    -0.36700
N138        N  0.56790784  0.87519984  0.35124691    -0.57200
N139        N  0.50623131  0.87742799  0.40557000    -0.36700
N140        N  0.44548925  0.87594790  0.34952707    -0.57200
C141        C  0.53983947  0.86697670  0.27585774     0.26900
C142        C  0.47490966  0.86866820  0.27478701     0.26900
C143        C  0.53839102  0.86783834  0.42554379     0.26900
C144        C  0.47340155  0.86716996  0.42462311     0.26900
C145        C  0.59216459  0.87766956  0.32263874     0.35500
C146        C  0.59149008  0.87960913  0.38032372     0.35500
C147        C  0.42209157  0.87979288  0.32041955     0.35500
C148        C  0.42134930  0.87852490  0.37814506     0.35500
C149        C  0.52773061  0.85413602  0.24223819    -0.21900
C150        C  0.48689868  0.85533477  0.24152101    -0.21900
C151        C  0.52579893  0.85278558  0.45801832    -0.21900
C152        C  0.48494189  0.85268731  0.45757998    -0.21900
C153        C  0.63133463  0.88419856  0.33351087    -0.23000
C154        C  0.63089520  0.88550964  0.37014061    -0.23000
C155        C  0.38286746  0.88568569  0.33059114    -0.23000
C156        C  0.38238482  0.88475669  0.36726323    -0.23000
C157        C  0.58015618  0.86898491  0.28733751    -0.18300
C158        C  0.43451501  0.87192041  0.28519371    -0.18300
C159        C  0.43315311  0.86984168  0.41334660    -0.18300
C160        C  0.57895059  0.87207629  0.41555828    -0.18300
H161        H  0.54631805  0.84420409  0.22054384     0.14600
H162        H  0.46815487  0.84634767  0.21921301     0.14600
H163        H  0.54413872  0.84256783  0.47979780     0.14600
H164        H  0.46592057  0.84215758  0.47892685     0.14600
H165        H  0.65759629  0.88629276  0.31683345     0.12800
H166        H  0.65678109  0.88871969  0.38737500     0.12800
H167        H  0.35706247  0.88838476  0.31335875     0.12800
H168        H  0.35617866  0.88676185  0.38393705     0.12800
H169        H  0.50761664  0.89030790  0.32016186     0.26100
H170        H  0.50668688  0.89225944  0.38140329     0.26100
N171        N  0.13381991  0.49321111  0.40620437    -0.36700
N172        N  0.12964389  0.55358504  0.35060300    -0.57200
N173        N  0.12483025  0.49508640  0.29601393    -0.36700
N174        N  0.12973686  0.43412027  0.35177506    -0.57200
C175        C  0.14773329  0.52547287  0.42385273     0.26900
C176        C  0.14467456  0.46149474  0.42536936     0.26900
C177        C  0.13282548  0.52769396  0.27631426     0.26900
C178        C  0.13665544  0.46386276  0.27657414     0.26900
C179        C  0.12665323  0.57580469  0.38019967     0.35500
C180        C  0.12064477  0.57718501  0.32304969     0.35500
C181        C  0.12871299  0.40981239  0.38024901     0.35500
C182        C  0.12868904  0.41081291  0.32252609     0.35500
C183        C  0.16658102  0.51429588  0.45512023    -0.21900
C184        C  0.16444629  0.47388968  0.45619045    -0.21900
C185        C  0.14797804  0.51692604  0.24345303    -0.21900
C186        C  0.15027679  0.47669944  0.24352403    -0.21900
C187        C  0.11462365  0.61346585  0.37161330    -0.23000
C188        C  0.11133922  0.61447079  0.33515028    -0.23000
C189        C  0.12593901  0.37091207  0.36900398    -0.23000
C190        C  0.12641793  0.37152664  0.33246280    -0.23000
C191        C  0.14196808  0.56480382  0.41344659    -0.18300
C192        C  0.13781054  0.42166409  0.41554061    -0.18300
C193        C  0.13546015  0.42396923  0.28735938    -0.18300
C194        C  0.12727559  0.56702319  0.28730508    -0.18300
H195        H  0.18036064  0.53327901  0.47515226     0.14600
H196        H  0.17663545  0.45576863  0.47709033     0.14600
H197        H  0.15704452  0.53607731  0.22182064     0.14600
H198        H  0.16136122  0.45904096  0.22171612     0.14600
H199        H  0.11116488  0.63825959  0.38954782     0.12800
H200        H  0.10465918  0.64006447  0.31927254     0.12800
H201        H  0.12636561  0.34473947  0.38536260     0.12800
H202        H  0.12697324  0.34586564  0.31521786     0.12800
H203        H  0.11514150  0.49312619  0.38397252     0.26100
H204        H  0.11004798  0.49385859  0.32034762     0.26100
Zr205      Zr  0.24016280  0.23319807  0.16245265     2.17500
O206        O  0.24394183  0.23673764  0.22763370    -0.51400
O207        O  0.19016246  0.18508133  0.18129485    -0.74600
O208        O  0.20633713  0.28892206  0.18813081    -0.81400
O209        O  0.32604142  0.16232514  0.15731219    -0.83100
O210        O  0.17911470  0.32647861  0.14468280    -0.78700
O211        O  0.29224285  0.20085340  0.19606886    -0.90400
O212        O  0.15798225  0.15798695  0.13357654    -0.76300
O213        O  0.18687067  0.23979754  0.12075798    -0.85800
O214        O  0.24243998  0.17711846  0.12445033    -0.85500
O215        O  0.25492122  0.29369445  0.13140640    -0.72300
O216        O  0.30526999  0.23611245  0.13634765    -0.84400
Zr217      Zr  0.26974080  0.24575310  0.02238887     2.26400
Zr218      Zr  0.20212266  0.29902532  0.08844839     2.06300
Zr219      Zr  0.30663330  0.18045355  0.09743277     2.10000
Zr220      Zr  0.19052022  0.18464172  0.08160597     1.78800
O221        O  0.37928891  0.18200256  0.09390117    -0.93200
O222        O  0.12289994  0.20815201  0.07243773    -0.41000
O223        O  0.25466113  0.18622409  0.05412205    -0.77700
O224        O  0.20410862  0.24329410  0.04855007    -0.96300
O225        O  0.26641395  0.30212749  0.06040550    -0.89600
O226        O  0.32225558  0.23904581  0.06474251    -0.92500
C227        C  0.16432562  0.16147459  0.16714264     1.01300
C228        C  0.31837364  0.17496985  0.18874457     1.14200
C229        C  0.18665251  0.31855233  0.17743558     1.05000
O230        O  0.12952682  0.29885100  0.08338272    -0.94600
O231        O  0.18619077  0.32040860  0.02869931    -0.90400
O232        O  0.22336007  0.28615836  0.98895261    -0.83500
C233        C  0.19642726  0.31095102  0.99689730     1.11600
O234        O  0.34348748  0.32247037  0.15909447    -0.96600
Zr235      Zr  0.31847801  0.29486107  0.10306219     1.88900
O236        O  0.32510037  0.28819608  0.00318676    -0.73300
O237        O  0.20761277  0.37072221  0.08909062    -0.52500
O238        O  0.31362545  0.36621892  0.10725780    -0.97200
O239        O  0.38773826  0.27764642  0.11345305    -0.54400
O240        O  0.35091201  0.32090799  0.05061585    -0.73800
C241        C  0.34925905  0.31382182  0.01713850     0.98600
O242        O  0.26818884  0.23527761  0.95799393    -0.62600
O243        O  0.30664914  0.10886465  0.10225553    -0.57400
O244        O  0.29624615  0.18539708  0.99599528    -0.94100
O245        O  0.31671452  0.14756981  0.04164193    -0.92500
O246        O  0.19207712  0.11315035  0.07696785    -0.92900
O247        O  0.16602842  0.15217533  0.02746532    -0.91700
C248        C  0.31185042  0.15392725  0.00829044     1.17400
H249        H  0.23949248  0.15282335  0.13754747     0.33300
H250        H  0.18375410  0.24452181  0.03034282     0.44200
H251        H  0.34779049  0.23721662  0.05305525     0.37700
H252        H  0.25581275  0.31612917  0.14723665     0.34200
H253        H  0.12252829  0.21976542  0.04827074     0.26000
H254        H  0.22665309  0.37709074  0.10865952     0.31900
H255        H  0.29814041  0.37378847  0.08589493     0.37800
H256        H  0.21920520  0.10754077  0.06810162     0.32300
H257        H  0.33376602  0.10250806  0.11079791     0.31200
H258        H  0.38871759  0.17123045  0.11686793     0.32900
H259        H  0.39762129  0.26818865  0.09013693     0.31800
H260        H  0.17563288  0.16927944  0.00783964     0.35800
H261        H  0.24011700  0.22912686  0.95128229     0.28600
H262        H  0.21617885  0.23872246  0.23634979     0.32800
H263        H  0.34139169  0.30042195  0.17622275     0.35600
H264        H  0.28885680  0.10240251  0.12252423     0.28300
H265        H  0.27472631  0.26096928  0.94682852     0.41100
H266        H  0.12099809  0.32227376  0.09700086     0.31200
H267        H  0.10603519  0.18398109  0.07025073     0.38800
H268        H  0.38616038  0.25372833  0.12839604     0.30600
H269        H  0.22233888  0.37765668  0.06706626     0.30700
H270        H  0.25713012  0.26210875  0.23397025     0.31000
Zr271      Zr  0.24976055  0.73860162  0.02241464     2.17500
O272        O  0.22016694  0.75203574  0.96424163    -0.51400
O273        O  0.29751839  0.69153249  0.99952083    -0.74600
O274        O  0.28941131  0.78448202  0.98830086    -0.81400
O275        O  0.16108045  0.67007855  0.03900027    -0.83100
O276        O  0.31734813  0.82926219  0.02685353    -0.78700
O277        O  0.20244679  0.69341809  0.99571850    -0.90400
O278        O  0.32460788  0.66231226  0.04770682    -0.76300
O279        O  0.30699531  0.74679274  0.05977722    -0.85800
O280        O  0.24540967  0.68645772  0.06429061    -0.85500
O281        O  0.24358304  0.80308184  0.04813073    -0.72300
O282        O  0.18738399  0.74760374  0.05221446    -0.84400
Zr283      Zr  0.23513834  0.76743481  0.16056080     2.26400
Zr284      Zr  0.30008744  0.81031566  0.08713658     2.06300
Zr285      Zr  0.18453318  0.69628196  0.09553372     2.10000
Zr286      Zr  0.30198227  0.69482987  0.10193091     1.78800
O287        O  0.11190950  0.69828143  0.09725733    -0.93200
O288        O  0.37412559  0.70515783  0.10511919    -0.41000
O289        O  0.24112363  0.70321427  0.13433041    -0.77700
O290        O  0.29748019  0.75795369  0.12994361    -0.96300
O291        O  0.23898944  0.81985803  0.11870943    -0.89600
O292        O  0.17834224  0.75960189  0.12268094    -0.92500
C293        C  0.32052632  0.66622704  0.01374489     1.01300
C294        C  0.17267566  0.67265951  0.00653222     1.14200
C295        C  0.31035359  0.81536702  0.99550399     1.05000
O296        O  0.37239179  0.81322254  0.08013773    -0.94600
O297        O  0.32836349  0.83422283  0.14303179    -0.90400
O298        O  0.28986126  0.80681605  0.18629104    -0.83500
C299        C  0.31974013  0.82800305  0.17582962     1.11600
O300        O  0.16056548  0.83969541  0.02394167    -0.96600
Zr301      Zr  0.18304977  0.81113885  0.07992527     1.88900
O302        O  0.18634784  0.81527559  0.17955639    -0.73300
O303        O  0.29497303  0.88178342  0.08844958    -0.52500
O304        O  0.19744959  0.88164330  0.07570979    -0.97200
O305        O  0.11094319  0.80232705  0.07325238    -0.54400
O306        O  0.15352487  0.83949846  0.13182168    -0.73800
C307        C  0.15948576  0.83657648  0.16534082     0.98600
O308        O  0.24288859  0.76153658  0.22505458    -0.62600
O309        O  0.18696200  0.62476653  0.09979911    -0.57400
O310        O  0.20164771  0.71435127  0.19365058    -0.94100
O311        O  0.16579951  0.67611047  0.15471227    -0.92500
O312        O  0.29129544  0.62534311  0.11553228    -0.92900
O313        O  0.33283278  0.67436980  0.15773611    -0.91700
C314        C  0.17775660  0.68528602  0.18618172     1.17400
H315        H  0.24513233  0.66096889  0.05269863     0.33300
H316        H  0.32011784  0.75949368  0.14590249     0.44200
H317        H  0.15376184  0.76045697  0.13602726     0.37700
H318        H  0.24350541  0.82308356  0.02993407     0.34200
H319        H  0.38542919  0.68043622  0.09579344     0.26000
H320        H  0.32285007  0.89180791  0.08680351     0.31900
H321        H  0.17358861  0.89460354  0.08545097     0.37800
H322        H  0.31717077  0.61294345  0.11038673     0.32300
H323        H  0.20570924  0.61976572  0.11968882     0.31200
H324        H  0.10342689  0.67264064  0.10749949     0.32900
H325        H  0.10117949  0.79455639  0.09716438     0.31800
H326        H  0.33147750  0.69751754  0.17383301     0.35800
H327        H  0.27076088  0.75343232  0.22916394     0.28600
H328        H  0.24189835  0.75016785  0.94650915     0.32800
H329        H  0.15173219  0.81689449  0.00911370     0.35600
H330        H  0.16047645  0.61642488  0.10902529     0.28300
H331        H  0.24155275  0.78860656  0.23488176     0.41100
H332        H  0.37875032  0.84108263  0.07440964     0.31200
H333        H  0.38027028  0.72500179  0.08656801     0.38800
H334        H  0.10747224  0.77818299  0.05853805     0.30600
H335        H  0.28281827  0.88860162  0.06521813     0.30700
H336        H  0.21333333  0.78027034  0.96502775     0.31000
Zr337      Zr  0.23874688  0.76539268  0.54138103     2.17500
O338        O  0.25629293  0.75907080  0.47846190    -0.51400
O339        O  0.18677809  0.80936438  0.52102881    -0.74600
O340        O  0.20253310  0.71235947  0.51058072    -0.81400
O341        O  0.32943853  0.83573595  0.55624296    -0.83100
O342        O  0.17663951  0.66996319  0.55130986    -0.78700
O343        O  0.29317966  0.80255234  0.51408473    -0.90400
O344        O  0.15301610  0.83276137  0.56874600    -0.76300
O345        O  0.18404191  0.75389257  0.58033978    -0.85800
O346        O  0.23838437  0.82030890  0.58110005    -0.85500
O347        O  0.25225499  0.70353739  0.56933856    -0.72300
O348        O  0.30158163  0.76373341  0.57204818    -0.84400
Zr349      Zr  0.25759614  0.74194919  0.68271590     2.26400
Zr350      Zr  0.19750678  0.69289784  0.60922601     2.06300
Zr351      Zr  0.30007345  0.81766849  0.61289000     2.10000
Zr352      Zr  0.18485962  0.80770715  0.62129539     1.78800
O353        O  0.36958954  0.83854838  0.62130298    -0.93200
O354        O  0.11287434  0.79634972  0.62582246    -0.41000
O355        O  0.24622996  0.80508813  0.65354850    -0.77700
O356        O  0.19547944  0.74653078  0.65086943    -0.96300
O357        O  0.25910449  0.68894789  0.64137785    -0.89600
O358        O  0.31332922  0.75664755  0.64335594    -0.92500
C359        C  0.15905110  0.82972689  0.53519055     1.01300
C360        C  0.32185954  0.82591589  0.52384485     1.14200
C361        C  0.18266513  0.68118401  0.51928867     1.05000
O362        O  0.12596314  0.67976324  0.60612076    -0.94600
O363        O  0.16793154  0.67072046  0.66422718    -0.90400
O364        O  0.20833886  0.69588902  0.70785201    -0.83500
C365        C  0.17771074  0.67586080  0.69697319     1.11600
O366        O  0.35078334  0.68726874  0.54849776    -0.96600
Zr367      Zr  0.31359136  0.70319157  0.60224672     1.88900
O368        O  0.30893423  0.69633273  0.70263429    -0.73300
O369        O  0.21788867  0.62436787  0.60756761    -0.52500
O370        O  0.30774329  0.63328364  0.58766859    -0.97200
O371        O  0.38457683  0.72056346  0.60515394    -0.54400
O372        O  0.33874579  0.67048679  0.65430215    -0.73800
C373        C  0.33427061  0.67326399  0.68799077     0.98600
O374        O  0.23458079  0.75939365  0.74242052    -0.62600
O375        O  0.28991535  0.88854318  0.61671626    -0.57400
O376        O  0.28834582  0.78647606  0.72545779    -0.94100
O377        O  0.30114509  0.81577040  0.67609396    -0.92500
O378        O  0.19913114  0.87809926  0.62686958    -0.92900
O379        O  0.15323239  0.82972375  0.67616059    -0.91700
C380        C  0.30257945  0.81642347  0.70968949     1.17400
H381        H  0.23599047  0.84500186  0.56865004     0.33300
H382        H  0.17329338  0.74387217  0.66701021     0.44200
H383        H  0.33838308  0.75797272  0.65631492     0.37700
H384        H  0.25370939  0.68260180  0.55186680     0.34200
H385        H  0.10458789  0.78533664  0.60234919     0.26000
H386        H  0.22642038  0.61829989  0.63223401     0.31900
H387        H  0.33550750  0.62427697  0.58503670     0.37800
H388        H  0.17260173  0.89040398  0.62762994     0.32300
H389        H  0.31446777  0.89947988  0.62805414     0.31200
H390        H  0.38552046  0.81644769  0.61223868     0.32900
H391        H  0.39184471  0.72079854  0.63079473     0.31800
H392        H  0.17430745  0.84495064  0.68908411     0.35800
H393        H  0.20546293  0.76325660  0.74002404     0.28600
H394        H  0.23092639  0.75987440  0.46487883     0.32800
H395        H  0.33605623  0.70020425  0.52897537     0.35600
H396        H  0.29133689  0.89784803  0.59174604     0.28300
H397        H  0.23730583  0.73568662  0.75747813     0.41100
H398        H  0.11531135  0.70175182  0.59193746     0.31200
H399        H  0.10969180  0.77388042  0.64237638     0.38800
H400        H  0.38613046  0.74854265  0.59798637     0.30600
H401        H  0.19273558  0.60897713  0.60418062     0.30700
H402        H  0.26584290  0.73183427  0.47546120     0.31000
Zr403      Zr  0.25147364  0.25131620  0.68607236     2.17500
O404        O  0.23511010  0.24979807  0.74951943    -0.51400
O405        O  0.29667507  0.30333385  0.70727615    -0.74600
O406        O  0.28785295  0.20116581  0.71843966    -0.81400
O407        O  0.15841490  0.31221462  0.66616761    -0.83100
O408        O  0.31562995  0.15795447  0.67949104    -0.78700
O409        O  0.19041028  0.27929254  0.70995800    -0.90400
O410        O  0.33378426  0.32384715  0.66066611    -0.76300
O411        O  0.30898535  0.24337958  0.64959915    -0.85800
O412        O  0.25141244  0.30422581  0.64436865    -0.85500
O413        O  0.24355738  0.18732400  0.65874720    -0.72300
O414        O  0.19039697  0.24442948  0.65354667    -0.84400
Zr415      Zr  0.23963977  0.22495042  0.54620604     2.26400
Zr416      Zr  0.30052132  0.18083100  0.62047471     2.06300
Zr417      Zr  0.19101890  0.29603734  0.61069751     2.10000
Zr418      Zr  0.30790852  0.29495905  0.60708580     1.78800
O419        O  0.11972246  0.29571554  0.59752951    -0.93200
O420        O  0.37904020  0.28178915  0.60263536    -0.41000
O421        O  0.24792600  0.28837941  0.57329421    -0.77700
O422        O  0.30164489  0.23308684  0.57774215    -0.96300
O423        O  0.23927460  0.17261887  0.58826670    -0.89600
O424        O  0.18203992  0.23314982  0.58250214    -0.92500
C425        C  0.32442373  0.32482738  0.69364363     1.01300
C426        C  0.16211632  0.30112349  0.69862839     1.14200
C427        C  0.30793141  0.17041227  0.71096753     1.05000
O428        O  0.37190310  0.18374023  0.63300623    -0.94600
O429        O  0.32964823  0.15799170  0.56511794    -0.90400
O430        O  0.29171031  0.18391265  0.52087675    -0.83500
C431        C  0.32087695  0.16333153  0.53215731     1.11600
O432        O  0.15402989  0.15869302  0.68161943    -0.96600
Zr433      Zr  0.18301275  0.18190170  0.62584157     1.88900
O434        O  0.19123330  0.17579614  0.52687563    -0.73300
O435        O  0.29614342  0.10953282  0.61389108    -0.52500
O436        O  0.18721067  0.11078848  0.63318311    -0.97200
O437        O  0.11227757  0.19595553  0.63138848    -0.54400
O438        O  0.15617686  0.15157812  0.57374255    -0.73800
C439        C  0.16466608  0.15311587  0.54069667     0.98600
O440        O  0.24928640  0.23479103  0.48241188    -0.62600
O441        O  0.19365648  0.36754912  0.61646968    -0.57400
O442        O  0.21006070  0.27847376  0.51233698    -0.94100
O443        O  0.18263245  0.32161944  0.55132911    -0.92500
O444        O  0.29682272  0.36416082  0.59483628    -0.92900
O445        O  0.34277999  0.32161215  0.55545781    -0.91700
C446        C  0.19156852  0.31027107  0.51977920     1.17400
H447        H  0.25206314  0.32967900  0.65603470     0.33300
H448        H  0.32432457  0.23201168  0.56210147     0.44200
H449        H  0.15791105  0.23237422  0.56829713     0.37700
H450        H  0.24178628  0.16658786  0.67614838     0.34200
H451        H  0.39248178  0.30193485  0.61792521     0.26000
H452        H  0.31811932  0.09941082  0.62876077     0.31900
H453        H  0.20279351  0.10692701  0.65535770     0.37800
H454        H  0.31692641  0.37865069  0.60954210     0.32300
H455        H  0.21807895  0.37582093  0.60351322     0.31200
H456        H  0.11474449  0.32143249  0.58617981     0.32900
H457        H  0.09827812  0.17418715  0.61849157     0.31800
H458        H  0.32622774  0.31290210  0.53481536     0.35800
H459        H  0.27813403  0.24066046  0.47940324     0.28600
H460        H  0.26073885  0.25337349  0.76244949     0.32800
H461        H  0.16974364  0.17250886  0.70048933     0.35600
H462        H  0.17142924  0.37690437  0.60144418     0.28300
H463        H  0.24495819  0.20884341  0.47087448     0.41100
H464        H  0.38169971  0.15748312  0.62606438     0.31200
H465        H  0.38262954  0.25677102  0.61552564     0.38800
H466        H  0.10807380  0.21937628  0.61634978     0.30600
H467        H  0.27131624  0.10165129  0.62639508     0.30700
H468        H  0.22639874  0.22234050  0.75454236     0.31000
Zr469      Zr  0.76925056  0.76297869  0.15534131     2.17500
O470        O  0.76368855  0.76478461  0.22032869    -0.51400
O471        O  0.82006493  0.81106129  0.17232847    -0.74600
O472        O  0.80402069  0.70987702  0.18622326    -0.81400
O473        O  0.68008230  0.83215370  0.14376346    -0.83100
O474        O  0.83109519  0.66928633  0.14520158    -0.78700
O475        O  0.71448465  0.79640188  0.18419371    -0.90400
O476        O  0.84982050  0.83899111  0.12399651    -0.76300
O477        O  0.82301757  0.75634671  0.11467211    -0.85800
O478        O  0.76578226  0.81718777  0.11504117    -0.85500
O479        O  0.75584519  0.69975548  0.12825446    -0.72300
O480        O  0.70507379  0.75796886  0.12720898    -0.84400
Zr481      Zr  0.74502974  0.74012240  0.01632312     2.26400
Zr482      Zr  0.81013386  0.69361226  0.08706022     2.06300
Zr483      Zr  0.70263054  0.81094026  0.08544307     2.10000
Zr484      Zr  0.81834266  0.80933302  0.07318012     1.78800
O485        O  0.62994147  0.80942882  0.08590454    -0.93200
O486        O  0.88874424  0.79635381  0.06363349    -0.41000
O487        O  0.75558409  0.80330346  0.04369557    -0.77700
O488        O  0.80889004  0.74697438  0.04504445    -0.96300
O489        O  0.74702088  0.68705481  0.05740580    -0.89600
O490        O  0.69041802  0.74930804  0.05598134    -0.92500
C491        C  0.84475912  0.83494272  0.15744410     1.01300
C492        C  0.68744346  0.82101003  0.17573730     1.14200
C493        C  0.82485510  0.67986926  0.17762231     1.05000
O494        O  0.88197556  0.68737579  0.09349351    -0.94600
O495        O  0.83469665  0.67472270  0.02900076    -0.90400
O496        O  0.78985502  0.69448763  0.98731476    -0.83500
C497        C  0.82172168  0.67699166  0.99682780     1.11600
O498        O  0.66473147  0.66445498  0.14971390    -0.96600
Zr499      Zr  0.69318298  0.69657999  0.09736364     1.88900
O500        O  0.69243902  0.69512867  0.99564285    -0.73700
O501        O  0.80099748  0.62289743  0.07845554    -0.52500
O502        O  0.70060961  0.62539256  0.09605646    -0.97200
O503        O  0.62502627  0.71442597  0.11240852    -0.54400
O504        O  0.65963794  0.67248935  0.04443372    -0.73800
C505        C  0.66449678  0.67488960  0.01069393     0.98600
O506        O  0.76521322  0.76061549  0.95658431    -0.62600
O507        O  0.70728339  0.88264843  0.08279696    -0.57400
O508        O  0.70900281  0.79011607  0.98472705    -0.94100
O509        O  0.68490188  0.83270693  0.02606486    -0.92500
O510        O  0.80648890  0.87929780  0.06424046    -0.92900
O511        O  0.84716899  0.83491372  0.01810881    -0.91700
C512        C  0.68992621  0.82089301  0.99379094     1.17400
H513        H  0.76775687  0.84215751  0.12745958     0.33300
H514        H  0.83010392  0.74563098  0.02776576     0.44200
H515        H  0.66524681  0.74982064  0.04334399     0.37700
H516        H  0.75504147  0.67868282  0.14542282     0.34200
H517        H  0.90258074  0.82222349  0.06658404     0.26000
H518        H  0.82843406  0.61257977  0.07815429     0.31900
H519        H  0.71685504  0.61929108  0.11737798     0.37800
H520        H  0.78680643  0.88035146  0.04448958     0.32300
H521        H  0.67930612  0.89144720  0.08359792     0.31200
H522        H  0.62236046  0.83746151  0.08616628     0.32900
H523        H  0.61484062  0.72803841  0.09104193     0.31800
H524        H  0.82959573  0.82420202  0.99893125     0.35800
H525        H  0.79477947  0.76162327  0.95692727     0.28600
H526        H  0.79127404  0.76407720  0.22988173     0.32800
H527        H  0.67513051  0.68014810  0.17020484     0.35600
H528        H  0.71892832  0.89114264  0.10597641     0.28300
H529        H  0.75788724  0.73843259  0.94041418     0.41100
H530        H  0.89346456  0.71084587  0.08149951     0.31200
H531        H  0.89685083  0.78134467  0.08494392     0.38800
H532        H  0.62787071  0.73547372  0.13070169     0.30600
H533        H  0.78957529  0.61328109  0.10119621     0.30700
H534        H  0.75109085  0.73932043  0.22723864     0.31000
Zr535      Zr  0.74190398  0.73748353  0.68282492     2.17500
O536        O  0.74763122  0.73836475  0.74781685    -0.51400
O537        O  0.68433283  0.69578930  0.69858369    -0.74600
O538        O  0.70797903  0.79307547  0.70984085    -0.81400
O539        O  0.83224050  0.67203509  0.67689363    -0.83100
O540        O  0.68251647  0.83129774  0.66587491    -0.78700
O541        O  0.79118971  0.70126296  0.71682106    -0.90400
O542        O  0.65308190  0.67056758  0.65006036    -0.76300
O543        O  0.68987141  0.74288872  0.63991191    -0.85800
O544        O  0.74693663  0.68158086  0.64450628    -0.85500
O545        O  0.75573098  0.79927091  0.65349149    -0.72300
O546        O  0.80779188  0.74220214  0.65735529    -0.84400
Zr547      Zr  0.77121673  0.75466386  0.54446166     2.26400
Zr548      Zr  0.70334706  0.80379235  0.60985548     2.06300
Zr549      Zr  0.81115426  0.68744212  0.61707615     2.10000
Zr550      Zr  0.69581155  0.68757418  0.60087401     1.78800
O551        O  0.88319256  0.67936523  0.61753109    -0.93200
O552        O  0.62791507  0.69527458  0.57885001    -0.41000
O553        O  0.75970623  0.69231573  0.57297979    -0.77700
O554        O  0.70589943  0.74827477  0.57030361    -0.96300
O555        O  0.76778674  0.81015238  0.58332284    -0.89600
O556        O  0.82435874  0.74827935  0.58668748    -0.92500
C557        C  0.65573018  0.67578943  0.68369722     1.01300
C558        C  0.82091079  0.67970503  0.70878649     1.14200
C559        C  0.68842161  0.82274159  0.69864842     1.05000
O560        O  0.63072908  0.80081730  0.60982420    -0.94600
O561        O  0.68325224  0.82339253  0.55047049    -0.90400
O562        O  0.71999820  0.78925307  0.51055234    -0.83500
C563        C  0.69180283  0.81291628  0.51850478     1.11600
O564        O  0.84283749  0.82725982  0.68433964    -0.96600
Zr565      Zr  0.81962917  0.80278373  0.62651894     1.88900
O566        O  0.82144626  0.80301490  0.52751398    -0.73300
O567        O  0.70466861  0.87551906  0.60711305    -0.52500
O568        O  0.81601734  0.87318497  0.63915601    -0.97200
O569        O  0.89101038  0.79082447  0.62952714    -0.54400
O570        O  0.84623553  0.83613414  0.57562499    -0.73800
C571        C  0.84328262  0.82997097  0.54217161     0.98600
O572        O  0.76938747  0.75043360  0.47937135    -0.62600
O573        O  0.80040347  0.61665987  0.62318044    -0.57400
O574        O  0.80504256  0.69886587  0.51854662    -0.94100
O575        O  0.83392568  0.66111968  0.56070335    -0.92500
O576        O  0.70325985  0.61660846  0.60556831    -0.92900
O577        O  0.68201236  0.65287466  0.54502213    -0.91700
C578        C  0.82629175  0.66980509  0.52821126     1.17400
H579        H  0.74409052  0.65744872  0.65788789     0.33300
H580        H  0.68456829  0.74849181  0.55287530     0.44200
H581        H  0.85000177  0.74794983  0.57498341     0.37700
H582        H  0.75641249  0.82142407  0.66967871     0.34200
H583        H  0.61458750  0.66936283  0.58268599     0.26000
H584        H  0.72646993  0.88232519  0.59033636     0.31900
H585        H  0.84112014  0.88487574  0.62969520     0.37800
H586        H  0.67572704  0.60552736  0.60497303     0.32300
H587        H  0.77834697  0.61015632  0.60642822     0.31200
H588        H  0.89444607  0.70646665  0.61945791     0.32900
H589        H  0.89477320  0.77598651  0.65192448     0.31800
H590        H  0.68977101  0.67190988  0.52622925     0.35800
H591        H  0.79747765  0.75208786  0.47127859     0.28600
H592        H  0.72001941  0.73483598  0.75677374     0.32800
H593        H  0.84416611  0.80353726  0.69951385     0.35600
H594        H  0.82411395  0.60481100  0.61205566     0.28300
H595        H  0.75987913  0.72346861  0.47302847     0.41100
H596        H  0.62344509  0.78823845  0.63274283     0.31200
H597        H  0.61533088  0.71317921  0.59624321     0.38800
H598        H  0.90342023  0.81701849  0.63439377     0.30600
H599        H  0.67986013  0.88265754  0.59445947     0.30700
H600        H  0.75572698  0.76555167  0.75477957     0.31000
Zr601      Zr  0.74840219  0.23003830  0.16527752     2.17500
O602        O  0.73883960  0.23837071  0.22947625    -0.51400
O603        O  0.79895782  0.18483053  0.18558710    -0.74600
O604        O  0.69629002  0.18796280  0.19202931    -0.81400
O605        O  0.81229690  0.32371011  0.15760769    -0.83100
O606        O  0.66160676  0.15559355  0.14822213    -0.78700
O607        O  0.78049268  0.28421031  0.19767922    -0.90400
O608        O  0.83628081  0.16435872  0.13888636    -0.76300
O609        O  0.75095173  0.17654609  0.12421460    -0.85800
O610        O  0.80486624  0.24296072  0.12800157    -0.85500
O611        O  0.68620709  0.23293824  0.13331923    -0.72300
O612        O  0.73715388  0.29281140  0.13772336    -0.84400
Zr613      Zr  0.73318397  0.25281463  0.02535013     2.26400
Zr614      Zr  0.68922978  0.17911886  0.09197821     2.06300
Zr615      Zr  0.79253443  0.30411354  0.09883950     2.10000
Zr616      Zr  0.80624209  0.19026689  0.08601686     1.78800
O617        O  0.77877957  0.37434180  0.10089251    -0.93200
O618        O  0.80030050  0.11923590  0.07770668    -0.41000
O619        O  0.79540798  0.25137865  0.05695362    -0.77700
O620        O  0.74535833  0.19056370  0.05341458    -0.96300
O621        O  0.67706204  0.24046407  0.06276721    -0.89600
O622        O  0.73170802  0.30698146  0.06590804    -0.92500
C623        C  0.82783829  0.16563009  0.17208189     1.01300
C624        C  0.80331100  0.31347443  0.18932888     1.14200
C625        C  0.66851247  0.16413050  0.18111990     1.05000
O626        O  0.69645411  0.10800658  0.09541417    -0.94600
O627        O  0.67570421  0.15378085  0.03255743    -0.90400
O628        O  0.69848602  0.20000171  0.99337689    -0.83500
C629        C  0.68144692  0.16698143  0.00094985     1.11600
O630        O  0.64764752  0.31030804  0.16174723    -0.96600
Zr631      Zr  0.67643429  0.29410948  0.10393884     1.88900
O632        O  0.68261597  0.29707083  0.00285679    -0.73300
O633        O  0.61695591  0.17497129  0.08539580    -0.52500
O634        O  0.60485437  0.28143491  0.10783068    -0.97200
O635        O  0.68218175  0.36524691  0.11261184    -0.54400
O636        O  0.64614012  0.31797951  0.04962866    -0.73800
C637        C  0.65388577  0.31673727  0.01611362     0.98600
O638        O  0.75650991  0.24442827  0.96412711    -0.62600
O639        O  0.86421291  0.31849516  0.10002041    -0.57400
O640        O  0.78394248  0.29447495  0.99802519    -0.94100
O641        O  0.82029049  0.32376984  0.04248525    -0.92500
O642        O  0.87716889  0.20539980  0.07906310    -0.92900
O643        O  0.83507771  0.16992758  0.02943427    -0.91700
C644        C  0.81258000  0.31666037  0.00955602     1.17400
H645        H  0.82930956  0.24466926  0.14175794     0.33300
H646        H  0.74796356  0.16979948  0.03598916     0.44200
H647        H  0.72968479  0.33174562  0.05352744     0.37700
H648        H  0.66357031  0.23032289  0.14896821     0.34200
H649        H  0.82814329  0.11032654  0.07542984     0.26000
H650        H  0.61107008  0.18995072  0.06345421     0.31900
H651        H  0.60230335  0.25314297  0.11379943     0.37800
H652        H  0.87845586  0.23372580  0.07292017     0.32300
H653        H  0.86724868  0.34459115  0.11176420     0.31200
H654        H  0.78970227  0.38511310  0.07837015     0.32900
H655        H  0.68920683  0.37615857  0.08895576     0.31800
H656        H  0.81727653  0.18091883  0.01099826     0.35800
H657        H  0.76533012  0.21682239  0.96232959     0.28600
H658        H  0.74315391  0.21229415  0.24040502     0.32800
H659        H  0.63441369  0.33587590  0.15865206     0.35600
H660        H  0.87543277  0.29967448  0.11728819     0.28300
H661        H  0.73254396  0.24571609  0.94866725     0.41100
H662        H  0.71529670  0.10388703  0.11541153     0.31200
H663        H  0.79149903  0.10899222  0.10114450     0.38800
H664        H  0.70651125  0.36926478  0.12735503     0.30600
H665        H  0.61118129  0.14713322  0.07886593     0.30700
H666        H  0.71024004  0.24388279  0.23317315     0.31000
Zr667      Zr  0.74027561  0.26015153  0.67952723     2.17500
O668        O  0.74316743  0.25296362  0.74435718    -0.51400
O669        O  0.69240233  0.30981017  0.69758598    -0.74600
O670        O  0.79568398  0.29601151  0.70786367    -0.81400
O671        O  0.67780785  0.16497220  0.66954536    -0.83100
O672        O  0.83947080  0.31911207  0.66653151    -0.78700
O673        O  0.70609397  0.20669968  0.71051777    -0.90400
O674        O  0.66748219  0.33933964  0.64895671    -0.76300
O675        O  0.74949168  0.31236725  0.63804555    -0.85800
O676        O  0.68495805  0.25475665  0.63935614    -0.85500
O677        O  0.80368651  0.24734378  0.65201184    -0.72300
O678        O  0.74437030  0.19598817  0.65278766    -0.84400
Zr679      Zr  0.76287661  0.23220261  0.54112221     2.26400
Zr680      Zr  0.81178555  0.29937261  0.60925597     2.06300
Zr681      Zr  0.69074291  0.19176078  0.61088515     2.10000
Zr682      Zr  0.69479768  0.30644172  0.59751419     1.78800
O683        O  0.68089165  0.12068468  0.60532594    -0.93200
O684        O  0.70865050  0.37650157  0.58860200    -0.41000
O685        O  0.69932680  0.24356206  0.56850856    -0.77700
O686        O  0.75670024  0.29663517  0.56790129    -0.96300
O687        O  0.81710099  0.23580593  0.58209227    -0.89600
O688        O  0.75294363  0.17973310  0.58229511    -0.92500
C689        C  0.66999680  0.33526312  0.68282914     1.01300
C690        C  0.68577768  0.17571968  0.70170969     1.14200
C691        C  0.82819084  0.31389865  0.69885187     1.05000
O692        O  0.81982425  0.37065210  0.61526294    -0.94600
O693        O  0.83304374  0.32263758  0.55138443    -0.90400
O694        O  0.80163422  0.28337520  0.51027512    -0.83500
C695        C  0.82473483  0.31255845  0.51918061     1.11600
O696        O  0.82740066  0.15900165  0.68172431    -0.96600
Zr697      Zr  0.80624565  0.18429657  0.62408939     1.88900
O698        O  0.81440691  0.18589648  0.52444529    -0.73300
O699        O  0.88226354  0.28835519  0.59848951    -0.52500
O700        O  0.87813039  0.19112601  0.63293225    -0.97200
O701        O  0.78868236  0.11485553  0.63219542    -0.54400
O702        O  0.83619960  0.15351789  0.57338846    -0.73800
C703        C  0.83602975  0.16022421  0.53991742     0.98600
O704        O  0.74738444  0.23229576  0.47746415    -0.62600
O705        O  0.61878637  0.20023560  0.61379678    -0.57400
O706        O  0.71202025  0.19219950  0.51092899    -0.94100
O707        O  0.66798871  0.17021072  0.55276084    -0.92500
O708        O  0.62314794  0.29736435  0.58862194    -0.92900
O709        O  0.66941736  0.33192499  0.54141723    -0.91700
C710        C  0.68024305  0.17355645  0.52060793     1.17400
H711        H  0.65981688  0.25675271  0.65170991     0.33300
H712        H  0.75791098  0.31763402  0.55068685     0.44200
H713        H  0.75232979  0.15450481  0.57024672     0.37700
H714        H  0.82525999  0.24677005  0.66907510     0.34200
H715        H  0.68460524  0.38995797  0.59737518     0.26000
H716        H  0.89563357  0.31401972  0.60357420     0.31900
H717        H  0.88850745  0.16434720  0.62902182     0.37800
H718        H  0.61069231  0.31688480  0.60459231     0.32300
H719        H  0.60720690  0.17650618  0.60190642     0.31200
H720        H  0.65272190  0.11569500  0.61214012     0.32900
H721        H  0.79516253  0.10175309  0.60933249     0.31800
H722        H  0.67867085  0.31308685  0.52310579     0.35800
H723        H  0.74151746  0.25996097  0.47147566     0.28600
H724        H  0.74674717  0.27969502  0.75468618     0.32800
H725        H  0.80547300  0.16561921  0.69822356     0.35600
H726        H  0.61195756  0.19686773  0.63930117     0.28300
H727        H  0.77292684  0.22684089  0.46535529     0.41100
H728        H  0.81548718  0.38141252  0.59108454     0.31200
H729        H  0.72972076  0.38345386  0.60627192     0.38800
H730        H  0.75915253  0.11401690  0.63317644     0.30600
H731        H  0.89083163  0.27091890  0.61802253     0.30700
H732        H  0.76850089  0.23947988  0.74943075     0.31000
O733        O  0.91518286  0.07739581  0.29679277    -0.75300
O734        O  0.95283376  0.04916683  0.25334377    -0.54300
C735        C  0.92561814  0.07270729  0.26418759     0.78400
O736        O  0.07628877  0.07193551  0.41369631    -0.59900
O737        O  0.04201879  0.03534952  0.45478648    -0.53000
C738        C  0.06852240  0.06104434  0.44572204     0.70400
O739        O  0.07255318  0.08028580  0.29467984    -0.74500
O740        O  0.04012367  0.04483530  0.25110100    -0.55100
C741        C  0.06529831  0.07124599  0.26192342     0.76400
O742        O  0.91905402  0.07300454  0.41532181    -0.59600
O743        O  0.95421539  0.03773985  0.45608821    -0.52800
C744        C  0.92870257  0.06386334  0.44744159     0.73000
Zr745      Zr  0.93573729  0.05445795  0.35463607     2.54700
O746        O  0.93691471  0.12617516  0.35382451    -0.80200
O747        O  0.86335629  0.04824708  0.35952561    -0.93600
Zr748      Zr  0.05355433  0.05828063  0.35365967     2.64700
O749        O  0.04946149  0.12973776  0.35712098    -0.98600
O750        O  0.12607107  0.06185695  0.35047385    -0.80600
O751        O  0.99428203  0.05897233  0.31950425    -0.84000
O752        O  0.99516972  0.05611461  0.38890434    -2.18700
O753        O  0.91556509  0.91917462  0.40826614    -0.67400
O754        O  0.94939179  0.95369001  0.45156520    -0.52000
C755        C  0.92297028  0.92834436  0.44093344     0.71400
O756        O  0.06952498  0.92118229  0.29033423    -0.60300
O757        O  0.03752722  0.95742886  0.24857592    -0.52300
C758        C  0.06136244  0.92992189  0.25787983     0.73200
O759        O  0.07429932  0.91939118  0.40898936    -0.71700
O760        O  0.03833997  0.94979883  0.45224783    -0.50400
C761        C  0.06476103  0.92537232  0.44175408     0.74600
O762        O  0.92540390  0.91636573  0.28861100    -0.67000
O763        O  0.95375689  0.95823203  0.24790392    -0.54200
C764        C  0.93276540  0.92791963  0.25670851     0.72900
Zr765      Zr  0.93716588  0.93879007  0.34927968     2.77500
O766        O  0.93480159  0.86705863  0.34685334    -0.97800
O767        O  0.86486784  0.94424754  0.34648094    -0.78600
Zr768      Zr  0.05523142  0.94235917  0.35024850     2.70100
O769        O  0.06151238  0.87110258  0.34665038    -0.79800
O770        O  0.12741104  0.95235386  0.34829617    -0.98900
Zr771      Zr  0.99536703  0.00159966  0.28305744     2.21500
Zr772      Zr  0.99607749  0.99537053  0.42043827     2.11100
O773        O  0.99605905  0.93732360  0.38441618    -2.47600
O774        O  0.99628487  0.94160855  0.31542377    -0.79600
O775        O  0.93601712  0.99490399  0.38672128    -0.71800
O776        O  0.05544461  0.00150249  0.31704957    -2.32800
O777        O  0.93498518  0.99818996  0.31664648    -2.29000
O778        O  0.05605603  0.99910052  0.38681165    -0.73600
H779        H  0.99549309  0.07837693  0.40505536     0.78400
H780        H  0.07843980  0.00252743  0.30158297     0.79500
H781        H  0.99592534  0.91377862  0.39878704     0.81700
H782        H  0.91180468  0.99802819  0.30120055     0.79300
H783        H  0.13530424  0.04397841  0.36945512     0.42400
H784        H  0.13167536  0.97855290  0.33737513     0.41300
H785        H  0.03924416  0.86047227  0.36124790     0.41000
H786        H  0.94946714  0.85854482  0.36837741     0.38900
H787        H  0.85718723  0.93411566  0.32254927     0.42100
H788        H  0.85880370  0.02486479  0.37477788     0.36900
H789        H  0.90892409  0.13345341  0.34907155     0.43000
H790        H  0.02807800  0.13635606  0.33997743     0.39400
H791        H  0.90655254  0.85981298  0.35160894     0.44300
H792        H  0.85412903  0.03970626  0.33551486     0.43000
H793        H  0.03784584  0.13518424  0.38085783     0.43200
H794        H  0.13558432  0.95612465  0.37352853     0.43500
O795        O  0.43273100  0.90507495  0.90801883    -0.75300
O796        O  0.38503706  0.94084248  0.88028609    -0.54300
C797        C  0.39635001  0.91267171  0.90053099     0.78400
O798        O  0.56434927  0.07251065  0.91396284    -0.59900
O799        O  0.61276005  0.03993993  0.88371544    -0.53000
C800        C  0.60061159  0.06773600  0.90410449     0.70400
O801        O  0.43269512  0.05234549  0.93118888    -0.74500
O802        O  0.38453259  0.02727825  0.89370395    -0.55100
C803        C  0.39622826  0.04634295  0.92152348     0.76400
O804        O  0.56505051  0.90582318  0.90438054    -0.59600
O805        O  0.61227667  0.94849738  0.88252957    -0.52800
C806        C  0.60119615  0.91801998  0.90045534     0.73000
Zr807      Zr  0.49847612  0.92712756  0.89136441     2.54700
O808        O  0.50073726  0.91625146  0.95569673    -0.80200
O809        O  0.49319656  0.85643907  0.88058208    -0.93600
Zr810      Zr  0.49959702  0.04019970  0.90988575     2.64700
O811        O  0.51518344  0.01958657  0.97046401    -0.98600
O812        O  0.49063412  0.10584677  0.93459338    -0.80600
O813        O  0.45928833  0.98299554  0.90216622    -0.84000
O814        O  0.53882004  0.98426134  0.90093123    -2.18700
O815        O  0.56117629  0.92024503  0.77449368    -0.67400
O816        O  0.61050398  0.95102598  0.80699121    -0.52000
C817        C  0.59769086  0.92516177  0.78434910     0.71400
O818        O  0.43100997  0.08552533  0.79641452    -0.60300
O819        O  0.38378576  0.04479820  0.82103507    -0.52300
C820        C  0.39479361  0.07593605  0.80398962     0.73200
O821        O  0.56419032  0.08126233  0.78868688    -0.71700
O822        O  0.61215786  0.04104777  0.81044362    -0.50400
C823        C  0.60066634  0.07091126  0.79249270     0.74600
O824        O  0.42847227  0.93077641  0.76828146    -0.67000
O825        O  0.38217327  0.95953564  0.80385806    -0.54200
C826        C  0.39242898  0.93798821  0.77733479     0.72900
Zr827      Zr  0.49608233  0.94664286  0.78687650     2.77500
O828        O  0.50096719  0.96233537  0.72362738    -0.97800
O829        O  0.48973660  0.87757161  0.76985269    -0.78600
Zr830      Zr  0.49739006  0.06091341  0.80588542     2.70100
O831        O  0.48923991  0.07928951  0.74362597    -0.79800
O832        O  0.50376605  0.13015595  0.82248111    -0.98900
Zr833      Zr  0.42130323  0.99288910  0.84911602     2.21500
Zr834      Zr  0.57488097  0.99433907  0.84658993     2.11100
O835        O  0.53591180  0.00426241  0.79387160    -2.47600
O836        O  0.45759001  0.00361970  0.79536825    -0.79600
O837        O  0.53548522  0.93598216  0.83833942    -0.71800
O838        O  0.46017103  0.05141946  0.85876712    -2.32800
O839        O  0.45888021  0.93506784  0.83945330    -2.29000
O840        O  0.53657675  0.05150059  0.85716446    -0.73600
H841        H  0.55657868  0.98132427  0.92105663     0.78400
H842        H  0.44360834  0.07382195  0.86329925     0.79500
H843        H  0.55246632  0.00762592  0.77301998     0.81700
H844        H  0.44159947  0.91221522  0.83614983     0.79300
H845        H  0.49147236  0.12333586  0.91354131     0.42400
H846        H  0.49176782  0.14433368  0.80222825     0.41300
H847        H  0.47314951  0.05745057  0.73293274     0.41000
H848        H  0.50322932  0.99141291  0.72272427     0.38900
H849        H  0.47856398  0.86441140  0.79122038     0.42100
H850        H  0.51300412  0.84474694  0.89686724     0.36900
H851        H  0.52232691  0.89729213  0.95978339     0.43000
H852        H  0.49712726  0.03497485  0.98577414     0.39400
H853        H  0.52760388  0.95315259  0.71634484     0.44300
H854        H  0.50434309  0.85265900  0.85641128     0.43000
H855        H  0.50461982  0.99223495  0.97197563     0.43200
H856        H  0.48498551  0.13365302  0.84250946     0.43500
O857        O  0.09599565  0.43202838  0.91494404    -0.75300
O858        O  0.05476346  0.38234957  0.89500675    -0.54300
C859        C  0.08673368  0.39534922  0.91098708     0.78400
O860        O  0.92378272  0.55978852  0.91943519    -0.59900
O861        O  0.95858905  0.60678463  0.88858550    -0.53000
C862        C  0.93068562  0.59546477  0.90988124     0.70400
O863        O  0.92519715  0.43117216  0.93088803    -0.74500
O864        O  0.95732341  0.38078369  0.90331020    -0.55100
C865        C  0.93093105  0.39449846  0.92486020     0.76400
O866        O  0.09331475  0.55995417  0.88833722    -0.59600
O867        O  0.04725875  0.60689791  0.88830760    -0.52800
C868        C  0.08076938  0.59360565  0.89841580     0.73000
Zr869      Zr  0.06581209  0.49549984  0.90446222     2.54700
O870        O  0.05642481  0.50299794  0.96858876    -0.80200
O871        O  0.13455762  0.50461891  0.92505179    -0.93600
Zr872      Zr  0.95059975  0.49498564  0.91275477     2.64700
O873        O  0.97077890  0.50214488  0.97494353    -0.98600
O874        O  0.88042581  0.49537707  0.92920000    -0.80600
O875        O  0.00781454  0.45528436  0.91240380    -0.84000
O876        O  0.00846929  0.53525860  0.90780706    -2.18700
O877        O  0.08070326  0.55168874  0.78271117    -0.67400
O878        O  0.04974519  0.60175962  0.81190197    -0.52000
C879        C  0.07598139  0.58823546  0.79027358     0.71400
O880        O  0.91649701  0.42325261  0.79532058    -0.60300
O881        O  0.95365127  0.37725971  0.82420538    -0.52300
C882        C  0.92534750  0.38783649  0.80318703     0.73200
O883        O  0.91319691  0.55353374  0.79350679    -0.71700
O884        O  0.95483016  0.60232443  0.81457506    -0.50400
C885        C  0.92374520  0.58996067  0.79729044     0.74600
O886        O  0.07027168  0.41968632  0.78392758    -0.67000
O887        O  0.03974755  0.37421351  0.81997692    -0.54200
C888        C  0.06288387  0.38427255  0.79416006     0.72900
Zr889      Zr  0.05506942  0.48727260  0.79913452     2.77500
O890        O  0.04404068  0.48660294  0.73478764    -0.97800
O891        O  0.12664725  0.48112281  0.79078298    -0.78600
Zr892      Zr  0.93983241  0.48912354  0.80728681     2.70100
O893        O  0.94594683  0.48799824  0.74245774    -0.79800
O894        O  0.86738511  0.48220316  0.80600867    -0.98900
Zr895      Zr  0.00176529  0.41429364  0.86067985     2.21500
Zr896      Zr  0.00284428  0.56853164  0.85144885     2.11100
O897        O  0.99826045  0.52779573  0.79943794    -2.47600
O898        O  0.99645066  0.44854070  0.80519575    -0.79600
O899        O  0.06111630  0.52911312  0.84947395    -0.71800
O900        O  0.94386517  0.45420274  0.86182391    -2.32800
O901        O  0.06140645  0.45323405  0.85375137    -2.29000
O902        O  0.94389906  0.52960754  0.85842445    -0.73600
H903        H  0.01034052  0.55365268  0.92756660     0.78400
H904        H  0.91990942  0.43814484  0.86396261     0.79500
H905        H  0.99685080  0.54333755  0.77794109     0.81700
H906        H  0.08471192  0.43717487  0.85155998     0.79300
H907        H  0.86597932  0.49207473  0.90622574     0.42400
H908        H  0.85760378  0.50467317  0.82023087     0.41300
H909        H  0.95085022  0.46010229  0.73634860     0.41000
H910        H  0.05856999  0.51021566  0.72586610     0.38900
H911        H  0.13742610  0.47772002  0.81519494     0.42100
H912        H  0.15097128  0.49055616  0.90734132     0.36900
H913        H  0.06143917  0.47648402  0.97833107     0.43000
H914        H  0.95651584  0.52557365  0.98360998     0.39400
H915        H  0.05968525  0.46419560  0.72585099     0.44300
H916        H  0.13665111  0.48897959  0.94718910     0.43000
H917        H  0.95765286  0.47963392  0.98719399     0.43200
H918        H  0.85972294  0.48815249  0.78108801     0.43500
C919        C  0.62387292  0.13724512  0.77807811    -0.05800
C920        C  0.63033660  0.09670395  0.77497534     0.00100
C921        C  0.65990141  0.08281553  0.75135465    -0.08500
C922        C  0.67952422  0.11028192  0.72922704    -0.05900
C923        C  0.67022688  0.15037497  0.73025331     0.00100
C924        C  0.64286388  0.16442364  0.75567280    -0.08400
C925        C  0.63251512  0.20759147  0.75825160     0.62000
H926        H  0.60198340  0.14727182  0.79713204     0.12700
H927        H  0.70095654  0.10048277  0.70967144     0.12700
C928        C  0.66891322  0.03937006  0.74772029     0.62200
F929        F  0.60175825  0.21408779  0.78203237    -0.22900
F930        F  0.62077679  0.22135735  0.72521810    -0.20300
F931        F  0.66569369  0.22863072  0.77001546    -0.19900
F932        F  0.63504990  0.01895141  0.73630376    -0.20000
F933        F  0.68116335  0.02474724  0.78024862    -0.20300
F934        F  0.69907912  0.03283592  0.72333013    -0.23000
C935        C  0.91353850  0.12809286  0.47320994    -0.05800
C936        C  0.90966828  0.08702713  0.47567591     0.00100
C937        C  0.88476004  0.07004096  0.50205757    -0.08500
C938        C  0.86060289  0.09506563  0.52226829    -0.05900
C939        C  0.86252768  0.13613007  0.51797780     0.00100
C940        C  0.89142179  0.15312940  0.49502747    -0.08400
C941        C  0.90057145  0.19709701  0.49506457     0.62000
H942        H  0.93404772  0.14042080  0.45374678     0.12700
H943        H  0.83984317  0.08277672  0.54152676     0.12700
C944        C  0.88362937  0.02605089  0.50871943     0.62200
F945        F  0.93345833  0.20635616  0.47420176    -0.22900
F946        F  0.90886712  0.20955090  0.52958635    -0.20300
F947        F  0.86837882  0.21738347  0.48195269    -0.19900
F948        F  0.92087029  0.01433515  0.52006597    -0.20000
F949        F  0.87339582  0.00612096  0.47769521    -0.20300
F950        F  0.85614529  0.01570815  0.53473529    -0.23000
C951        C  0.83637367  0.34356530  0.75870263    -0.05800
C952        C  0.85451695  0.32804053  0.72806543     0.00100
C953        C  0.89672158  0.32418580  0.72729312    -0.08500
C954        C  0.91934467  0.33956957  0.75585420    -0.05900
C955        C  0.90119639  0.35805638  0.78467275     0.00100
C956        C  0.85917946  0.35814947  0.78739414    -0.08400
C957        C  0.83761751  0.37413890  0.81977786     0.62000
H958        H  0.80410318  0.34505429  0.76003169     0.12700
H959        H  0.95166895  0.34043065  0.75441320     0.12700
C960        C  0.91844565  0.30480888  0.69661095     0.62200
F961        F  0.81043967  0.34612436  0.83187509    -0.22900
F962        F  0.81735492  0.40769601  0.81057367    -0.20300
F963        F  0.86346095  0.38318365  0.84761527    -0.19900
F964        F  0.91750097  0.32884857  0.66699784    -0.20000
F965        F  0.90089518  0.26860939  0.68865780    -0.20300
F966        F  0.95804009  0.29845544  0.70503233    -0.23000
C967        C  0.63841204  0.15910715  0.94857585    -0.05800
C968        C  0.66703490  0.14284116  0.97101025     0.00100
C969        C  0.68093735  0.10439288  0.96439741    -0.08500
C970        C  0.66170627  0.08146793  0.93800399    -0.05900
C971        C  0.62952604  0.09627069  0.91872680     0.00100
C972        C  0.61988630  0.13659749  0.92175618    -0.08400
C973        C  0.58954175  0.15682191  0.89827708     0.62000
H974        H  0.62936146  0.18923552  0.95287348     0.12700
H975        H  0.66914786  0.05079283  0.93472096     0.12700
C976        C  0.71501871  0.08733661  0.98563204     0.62200
F977        F  0.60690449  0.19034643  0.88374077    -0.22900
F978        F  0.55728020  0.16769197  0.91877215    -0.20300
F979        F  0.57609172  0.13332526  0.87029072    -0.19900
F980        F  0.70299920  0.08071818  0.02034452    -0.20000
F981        F  0.74732199  0.11334406  0.98557741    -0.20300
F982        F  0.72733622  0.05192873  0.97129577    -0.23000
C983        C  0.86134862  0.37475483  0.93505161    -0.05800
C984        C  0.90182171  0.36785260  0.94243666     0.00100
C985        C  0.91190343  0.34206687  0.97046319    -0.08500
C986        C  0.88123843  0.32440362  0.99024372    -0.05900
C987        C  0.84120824  0.33275154  0.98384027     0.00100
C988        C  0.83057702  0.35762473  0.95544515    -0.08400
C989        C  0.78736555  0.36718484  0.94768362     0.62000
H990        H  0.85410392  0.39538941  0.91418894     0.12700
H991        H  0.88828780  0.30478628  0.01201133     0.12700
C992        C  0.95446884  0.33464928  0.98085698     0.62200
F993        F  0.78398928  0.39420427  0.92032855    -0.22900
F994        F  0.76983343  0.38284930  0.97783392    -0.20300
F995        F  0.76682944  0.33321740  0.93759520    -0.19900
F996        F  0.97291335  0.37001829  0.99018060    -0.20000
F997        F  0.97327261  0.31751592  0.95221781    -0.20300
F998        F  0.95740237  0.30944314  0.00971704    -0.23000
C999        C  0.85969484  0.10329299  0.18709498    -0.05800
C1000       C  0.85328849  0.14286586  0.19602981     0.00100
C1001       C  0.87256074  0.16000314  0.22615060    -0.08500
C1002       C  0.89805412  0.13645915  0.24641338    -0.05900
C1003       C  0.90375342  0.09651208  0.23802373     0.00100
C1004       C  0.88379245  0.07935500  0.20827919    -0.08400
C1005       C  0.88482363  0.03536543  0.20110700     0.62000
H1006       H  0.84437038  0.09089113  0.16398722     0.12700
H1007       H  0.91291101  0.14877524  0.26979000     0.12700
C1008       C  0.86669549  0.20290047  0.23660794     0.62200
F1009       F  0.86065294  0.02418967  0.17261873    -0.22900
F1010       F  0.87133431  0.01568946  0.23106961    -0.20300
F1011       F  0.92327089  0.02405333  0.19344352    -0.19900
F1012       F  0.82803453  0.20807647  0.24831418    -0.20000
F1013       F  0.87384206  0.22705392  0.20760092    -0.20300
F1014       F  0.89237300  0.21475755  0.26382249    -0.23000
C1015       C  0.63944535  0.83281097  0.74540440    -0.05800
C1016       C  0.67063069  0.84854104  0.72511435     0.00100
C1017       C  0.68259129  0.88851227  0.72921368    -0.08500
C1018       C  0.65935193  0.91293752  0.75081015    -0.05900
C1019       C  0.62605211  0.89767041  0.76897126     0.00100
C1020       C  0.61780769  0.85651223  0.76855891    -0.08400
C1021       C  0.58753542  0.83593927  0.79251100     0.62000
H1022       H  0.63179554  0.80168869  0.74303068     0.12700
H1023       H  0.66597352  0.94424949  0.75242590     0.12700
C1024       C  0.71997457  0.90477886  0.71143927     0.62200
F1025       F  0.60573525  0.80503407  0.80965182    -0.22900
F1026       F  0.55619932  0.82103455  0.77206110    -0.20300
F1027       F  0.57264082  0.86038166  0.81864343    -0.19900
F1028       F  0.71502088  0.90502803  0.67485853    -0.20000
F1029       F  0.75198927  0.88146033  0.72003921    -0.20300
F1030       F  0.72889355  0.94290904  0.72255998    -0.23000
C1031       C  0.88678221  0.66861397  0.73465758    -0.05800
C1032       C  0.84535807  0.66291774  0.73750082     0.00100
C1033       C  0.82960112  0.63704517  0.76363921    -0.08500
C1034       C  0.85650096  0.61504591  0.78407762    -0.05900
C1035       C  0.89808490  0.61901163  0.77962453     0.00100
C1036       C  0.91363202  0.64702885  0.75521887    -0.08400
C1037       C  0.95818166  0.65223167  0.74892673     0.62000
H1038       H  0.89797688  0.68906383  0.71478498     0.12700
H1039       H  0.84526989  0.59370444  0.80314674     0.12700
C1040       C  0.78491083  0.63206434  0.76941772     0.62200
F1041       F  0.96630710  0.67754334  0.72090316    -0.22900
F1042       F  0.97463115  0.61625100  0.74076583    -0.20300
F1043       F  0.97629445  0.66776415  0.77923285    -0.19900
F1044       F  0.76608560  0.62085382  0.73791679    -0.20000
F1045       F  0.76964412  0.66734960  0.78109525    -0.20300
F1046       F  0.77615436  0.60383739  0.79492787    -0.23000
C1047       C  0.84224937  0.87202595  0.48997447    -0.05800
C1048       C  0.86440859  0.85706265  0.51838236     0.00100
C1049       C  0.90507113  0.86811278  0.52296718    -0.08500
C1050       C  0.92252230  0.89327005  0.49774898    -0.05900
C1051       C  0.90078457  0.90669653  0.46832900     0.00100
C1052       C  0.85956435  0.89725441  0.46491146    -0.08400
C1053       C  0.83361986  0.91312058  0.43513873     0.62000
H1054       H  0.81102646  0.86342887  0.48738195     0.12700
H1055       H  0.95381809  0.90157493  0.50014850     0.12700
C1056       C  0.93039659  0.85266856  0.55333952     0.62200
F1057       F  0.79336666  0.90860905  0.44279841    -0.22900
F1058       F  0.84110964  0.89293203  0.40384687    -0.20300
F1059       F  0.84137662  0.95285983  0.43027034    -0.19900
F1060       F  0.92547039  0.81224553  0.55608066    -0.20000
F1061       F  0.91925583  0.87041125  0.58495947    -0.20300
F1062       F  0.97065176  0.86068977  0.54810559    -0.23000
C1063       C  0.86222585  0.61352836  0.92270943    -0.05800
C1064       C  0.90294425  0.62404808  0.92476292     0.00100
C1065       C  0.91578947  0.65546098  0.94707996    -0.08500
C1066       C  0.88731556  0.67374639  0.96858525    -0.05900
C1067       C  0.84726000  0.66064235  0.96895388     0.00100
C1068       C  0.83402456  0.63063627  0.94519321    -0.08400
C1069       C  0.79147347  0.61428784  0.94568299     0.62000
H1070       H  0.85327200  0.58940833  0.90518041     0.12700
H1071       H  0.89650210  0.69712656  0.98682370     0.12700
C1072       C  0.95950161  0.66759148  0.95006375     0.62200
F1073       F  0.78638749  0.58257746  0.92256139    -0.22900
F1074       F  0.76519887  0.64306052  0.93553722    -0.20300
F1075       F  0.78208920  0.60154375  0.97969727    -0.19900
F1076       F  0.98139431  0.63618115  0.96214141    -0.20000
F1077       F  0.96541880  0.69878043  0.97360035    -0.20300
F1078       F  0.97352332  0.67911288  0.91699168    -0.23000
C1079       C  0.67622628  0.88612133  0.96900591    -0.05800
C1080       C  0.67242632  0.84501237  0.96542584     0.00100
C1081       C  0.64899117  0.82844587  0.93733475    -0.08500
C1082       C  0.62876376  0.85400089  0.91462461    -0.05900
C1083       C  0.63099984  0.89495632  0.91936345     0.00100
C1084       C  0.65526390  0.91158904  0.94670074    -0.08400
C1085       C  0.65713672  0.95570242  0.95359141     0.62000
H1086       H  0.69459856  0.89810064  0.99047792     0.12700
H1087       H  0.60945538  0.84216647  0.89373066     0.12700
C1088       C  0.64374026  0.78422174  0.93211133     0.62200
F1089       F  0.68039906  0.96531432  0.98312757    -0.22900
F1090       F  0.61918436  0.96954144  0.95964731    -0.20300
F1091       F  0.67344379  0.97446843  0.92426636    -0.19900
F1092       F  0.63107505  0.76681507  0.96351116    -0.20000
F1093       F  0.67964899  0.76844034  0.92185087    -0.20300
F1094       F  0.61574718  0.77500415  0.90591532    -0.23000
C1095       C  0.90716110  0.84934958  0.18885080    -0.05800
C1096       C  0.86830800  0.86044936  0.18058831     0.00100
C1097       C  0.85232894  0.89530645  0.19467279    -0.08500
C1098       C  0.87559336  0.91733604  0.21865997    -0.05900
C1099       C  0.91373613  0.90540410  0.22836660     0.00100
C1100       C  0.93031515  0.87106082  0.21333578    -0.08400
C1101       C  0.97099342  0.85509570  0.22274316     0.62000
H1102       H  0.91887484  0.82268401  0.17712914     0.12700
H1103       H  0.86340180  0.94309226  0.23137840     0.12700
C1104       C  0.81067974  0.90864612  0.18515406     0.62200
F1105       F  0.99481528  0.85540852  0.19264956    -0.22900
F1106       F  0.96643479  0.81664947  0.23432732    -0.20300
F1107       F  0.99037494  0.87636086  0.24931063    -0.19900
F1108       F  0.78273841  0.88322234  0.20008238    -0.20000
F1109       F  0.80577014  0.90888400  0.14849510    -0.20300
F1110       F  0.80378974  0.94635947  0.19765689    -0.23000
C1111       C  0.10060981  0.12226280  0.52484080    -0.05800
C1112       C  0.14140940  0.12708204  0.51723800     0.00100
C1113       C  0.15882429  0.10626182  0.48866611    -0.08500
C1114       C  0.13384836  0.08259914  0.46734222    -0.05900
C1115       C  0.09267191  0.07982666  0.47357421     0.00100
C1116       C  0.07550559  0.09918925  0.50306300    -0.08400
C1117       C  0.03085183  0.09770193  0.51018620     0.62000
H1118       H  0.08822741  0.13799541  0.54732878     0.12700
H1119       H  0.14601570  0.06733930  0.44447219     0.12700
C1120       C  0.20305929  0.10952187  0.47994361     0.62200
F1121       F  0.02035620  0.12259307  0.53786991    -0.22900
F1122       F  0.01896236  0.05983329  0.51925269    -0.20300
F1123       F  0.01042249  0.10921065  0.47997731    -0.19900
F1124       F  0.22585711  0.10477577  0.51045370    -0.20000
F1125       F  0.21130510  0.14595113  0.46525028    -0.20300
F1126       F  0.21433911  0.08122194  0.45548604    -0.23000
C1127       C  0.35095155  0.16543714  0.76349977    -0.05800
C1128       C  0.32315081  0.14738447  0.74057256     0.00100
C1129       C  0.31143154  0.10757113  0.74557280    -0.08500
C1130       C  0.33290396  0.08511255  0.77008156    -0.05900
C1131       C  0.36422169  0.10221775  0.79011516     0.00100
C1132       C  0.37050834  0.14368929  0.78955322    -0.08400
C1133       C  0.39610215  0.16640642  0.81641046     0.62000
H1134       H  0.35775672  0.19665869  0.76079596     0.12700
H1135       H  0.32741056  0.05360522  0.77160124     0.12700
C1136       C  0.27701672  0.08900145  0.72463165     0.62200
F1137       F  0.37371934  0.19613603  0.83120169    -0.22900
F1138       F  0.42876843  0.18339330  0.79954964    -0.20300
F1139       F  0.40899780  0.14297325  0.84403872    -0.19900
F1140       F  0.28818483  0.08339856  0.68961940    -0.20000
F1141       F  0.24441792  0.11336465  0.72576098    -0.20300
F1142       F  0.26540915  0.05286883  0.73847059    -0.23000
C1143       C  0.14644428  0.32322469  0.75979276    -0.05800
C1144       C  0.13266883  0.31518686  0.72498828     0.00100
C1145       C  0.09220638  0.32280494  0.71610044    -0.08500
C1146       C  0.06860154  0.34254108  0.74109803    -0.05900
C1147       C  0.08392862  0.35385075  0.77441431     0.00100
C1148       C  0.12271530  0.34289001  0.78464904    -0.08400
C1149       C  0.14003021  0.35494781  0.82059655     0.62000
H1150       H  0.17706083  0.31676876  0.76662780     0.12700
H1151       H  0.03877665  0.35156749  0.73392481     0.12700
C1152       C  0.07385451  0.31127569  0.68037789     0.62200
F1153       F  0.17530041  0.33594664  0.82782647    -0.22900
F1154       F  0.11321386  0.34537331  0.84722076    -0.20300
F1155       F  0.14758789  0.39514228  0.82108398    -0.19900
F1156       F  0.08444740  0.27335801  0.67127124    -0.20000
F1157       F  0.08662269  0.33737965  0.65445644    -0.20300
F1158       F  0.03263483  0.31213593  0.68137086    -0.23000
C1159       C  0.16809262  0.62806258  0.74491644    -0.05800
C1160       C  0.15186885  0.65768887  0.72405139     0.00100
C1161       C  0.11186680  0.66928017  0.72951700    -0.08500
C1162       C  0.08810059  0.64757647  0.75364232    -0.05900
C1163       C  0.10373719  0.61578550  0.77253998     0.00100
C1164       C  0.14503869  0.60759093  0.76999450    -0.08400
C1165       C  0.16678617  0.57839759  0.79335621     0.62000
H1166       H  0.19921367  0.62067728  0.74147028     0.12700
H1167       H  0.05676219  0.65405498  0.75662327     0.12700
C1168       C  0.09458756  0.70438073  0.71020887     0.62200
F1169       F  0.19912907  0.59741679  0.80932441    -0.22900
F1170       F  0.18053911  0.54791068  0.77237370    -0.20300
F1171       F  0.14357008  0.56284887  0.82044034    -0.19900
F1172       F  0.09369916  0.69741171  0.67387187    -0.20000
F1173       F  0.11782809  0.73769856  0.71719283    -0.20300
F1174       F  0.05598544  0.71186830  0.72103776    -0.23000
C1175       C  0.12596696  0.89200044  0.52145519    -0.05800
C1176       C  0.13290203  0.85270845  0.51171319     0.00100
C1177       C  0.11432465  0.83654283  0.48081968    -0.08500
C1178       C  0.09097251  0.86121842  0.45965386    -0.05900
C1179       C  0.08551710  0.90109457  0.46843407     0.00100
C1180       C  0.10271605  0.91680631  0.50023659    -0.08400
C1181       C  0.09813606  0.95967455  0.51121701     0.62000
H1182       H  0.13992662  0.90344941  0.54559674     0.12700
H1183       H  0.07735636  0.84965880  0.43539164     0.12700
C1184       C  0.11892615  0.79359442  0.47015871     0.62200
F1185       F  0.12083767  0.96925358  0.54113467    -0.22900
F1186       F  0.05865265  0.96675921  0.51919883    -0.20300
F1187       F  0.11044117  0.98413271  0.48381232    -0.19900
F1188       F  0.11091174  0.76941211  0.49898323    -0.20000
F1189       F  0.15743123  0.78755807  0.45856212    -0.20300
F1190       F  0.09305663  0.78264829  0.44276889    -0.23000
C1191       C  0.34395689  0.87625419  0.70652526    -0.05800
C1192       C  0.31999589  0.85134183  0.72769527     0.00100
C1193       C  0.31306540  0.86160856  0.76375833    -0.08500
C1194       C  0.33385895  0.89434503  0.77813100    -0.05900
C1195       C  0.36114818  0.91634707  0.75765011     0.00100
C1196       C  0.36433926  0.90888493  0.72066665    -0.08400
C1197       C  0.39102210  0.93233582  0.69555286     0.62000
H1198       H  0.34829843  0.86950797  0.67863717     0.12700
H1199       H  0.33181460  0.90064065  0.80643818     0.12700
C1200       C  0.28506243  0.83796294  0.78736755     0.62200
F1201       F  0.37046970  0.94009808  0.66431838    -0.22900
F1202       F  0.42397300  0.91017977  0.68730662    -0.20300
F1203       F  0.40361825  0.96809503  0.70994195    -0.19900
F1204       F  0.30063826  0.80117662  0.79345000    -0.20000
F1205       F  0.24810776  0.83417790  0.77103212    -0.20300
F1206       F  0.27960403  0.85605845  0.82011718    -0.23000
C1207       C  0.13984997  0.67262463  0.94796231    -0.05800
C1208       C  0.14957336  0.65164356  0.97900074     0.00100
C1209       C  0.13783884  0.61162534  0.98243716    -0.08500
C1210       C  0.11536038  0.59440898  0.95496228    -0.05900
C1211       C  0.10479037  0.61544732  0.92453180     0.00100
C1212       C  0.11724469  0.65507473  0.92038484    -0.08400
C1213       C  0.10718424  0.67832724  0.88716792     0.62000
H1214       H  0.14937696  0.70320406  0.94586127     0.12700
H1215       H  0.10470699  0.56430732  0.95750143     0.12700
C1216       C  0.14872286  0.58683016  0.01453419     0.62200
F1217       F  0.12686934  0.71458871  0.88670060    -0.22900
F1218       F  0.06658518  0.68475915  0.88596242    -0.20300
F1219       F  0.11827777  0.65760993  0.85701208    -0.19900
F1220       F  0.12806165  0.59965347  0.04408743    -0.20000
F1221       F  0.18935815  0.58966279  0.02102420    -0.20300
F1222       F  0.13894504  0.54737208  0.00924714    -0.23000
C1223       C  0.37695570  0.84638286  0.92038186    -0.05800
C1224       C  0.36662267  0.88625960  0.91725560     0.00100
C1225       C  0.33281749  0.90044654  0.93547333    -0.08500
C1226       C  0.31384993  0.87547034  0.96007334    -0.05900
C1227       C  0.32701110  0.83712539  0.96560774     0.00100
C1228       C  0.35744796  0.82132614  0.94446010    -0.08400
C1229       C  0.37051946  0.77902635  0.94907957     0.62000
H1230       H  0.40212072  0.83566011  0.90534859     0.12700
H1231       H  0.28947073  0.88606137  0.97619603     0.12700
C1232       C  0.31795241  0.94194918  0.93039988     0.62200
F1233       F  0.40215673  0.76991612  0.92709979    -0.22900
F1234       F  0.33909502  0.75363013  0.94076455    -0.20300
F1235       F  0.38214446  0.77290252  0.98407957    -0.19900
F1236       F  0.30781966  0.94754995  0.89499746    -0.20000
F1237       F  0.34736549  0.96884111  0.94015355    -0.20300
F1238       F  0.28459086  0.94924406  0.95090081    -0.23000
C1239       C  0.12042891  0.89608491  0.17687027    -0.05800
C1240       C  0.13279660  0.85904347  0.18872911     0.00100
C1241       C  0.11678497  0.84322549  0.22058766    -0.08500
C1242       C  0.09169473  0.86688474  0.24104171    -0.05900
C1243       C  0.08156885  0.90534347  0.23062734     0.00100
C1244       C  0.09442228  0.91942430  0.19690389    -0.08400
C1245       C  0.08143871  0.95863832  0.18188805     0.62000
H1246       H  0.13178891  0.90686133  0.15164816     0.12700
H1247       H  0.08038508  0.85557314  0.26609408     0.12700
C1248       C  0.12543298  0.80153742  0.23294234     0.62200
F1249       F  0.09790381  0.96597175  0.14864640    -0.22900
F1250       F  0.09328689  0.98900723  0.20450912    -0.20300
F1251       F  0.04036131  0.95838424  0.17798029    -0.19900
F1252       F  0.16442853  0.79961121  0.24486452    -0.20000
F1253       F  0.11944369  0.77498905  0.20516616    -0.20300
F1254       F  0.10076775  0.78992791  0.26067797    -0.23000
C1255       C  0.13193424  0.31493813  0.96781032    -0.05800
C1256       C  0.17197151  0.32704680  0.96814582     0.00100
C1257       C  0.18528551  0.35752364  0.94542117    -0.08500
C1258       C  0.15672846  0.37702196  0.92456929    -0.05900
C1259       C  0.11564474  0.36721315  0.92654824     0.00100
C1260       C  0.10341679  0.33459191  0.94757714    -0.08400
C1261       C  0.06013708  0.32280694  0.95135150     0.62000
H1262       H  0.12281559  0.29121479  0.98543269     0.12700
H1263       H  0.16600439  0.40158853  0.90802503     0.12700
C1264       C  0.22875580  0.37091744  0.94520286     0.62200
F1265       F  0.04553270  0.30938812  0.91883122    -0.22900
F1266       F  0.03958604  0.35538077  0.96247809    -0.20300
F1267       F  0.05415563  0.29323457  0.97623799    -0.19900
F1268       F  0.25257004  0.33996943  0.93519377    -0.20000
F1269       F  0.23991018  0.38370794  0.97898016    -0.20300
F1270       F  0.23542287  0.40155793  0.92160691    -0.23000
C1271       C  0.34628501  0.09066473  0.00019201    -0.05800
C1272       C  0.32661188  0.12244561  0.98381580     0.00100
C1273       C  0.32408154  0.12311062  0.94576098    -0.08500
C1274       C  0.34338808  0.09369310  0.92627728    -0.05900
C1275       C  0.36611943  0.06521524  0.94316687     0.00100
C1276       C  0.36616528  0.06214107  0.98055105    -0.08400
C1277       C  0.38844721  0.03070076  0.00094963     0.62000
H1278       H  0.34793383  0.08851240  0.02899893     0.12700
H1279       H  0.34421869  0.09491263  0.89738397     0.12700
C1280       C  0.30359919  0.15517827  0.92501081     0.62200
F1281       F  0.36331459  0.01348021  0.02585832    -0.22900
F1282       F  0.42067716  0.04806836  0.01847575    -0.20300
F1283       F  0.40237087  0.00093974  0.97929757    -0.19900
F1284       F  0.32360802  0.19065867  0.93069934    -0.20000
F1285       F  0.26424753  0.15740542  0.93561763    -0.20300
F1286       F  0.30359037  0.14800382  0.88855758    -0.23000
C1287       C  0.09842086  0.13524044  0.18492020    -0.05800
C1288       C  0.13985844  0.13674907  0.19101634     0.00100
C1289       C  0.15664559  0.11462771  0.21923099    -0.08500
C1290       C  0.13084019  0.09222260  0.24066599    -0.05900
C1291       C  0.08948657  0.09197733  0.23535001     0.00100
C1292       C  0.07261816  0.11372786  0.20728996    -0.08400
C1293       C  0.02769667  0.11590759  0.20236738     0.62000
H1294       H  0.08627354  0.15215032  0.16312339     0.12700
H1295       H  0.14266157  0.07532729  0.26262954     0.12700
C1296       C  0.20123211  0.11451595  0.22728843     0.62200
F1297       F  0.01752603  0.14404110  0.17751696    -0.22900
F1298       F  0.00998846  0.12582977  0.23440984    -0.20300
F1299       F  0.01255829  0.07983103  0.19084182    -0.19900
F1300       F  0.21352530  0.15111235  0.23990593    -0.20000
F1301       F  0.22239409  0.10531533  0.19684541    -0.20300
F1302       F  0.21057760  0.08710533  0.25314314    -0.23000
C1303       C  0.13771660  0.34398383  0.48854113    -0.05800
C1304       C  0.17855630  0.33580224  0.49048324     0.00100
C1305       C  0.20572070  0.35513388  0.46723519    -0.08500
C1306       C  0.19069593  0.38189436  0.44239201    -0.05900
C1307       C  0.15004487  0.39080919  0.44112411     0.00100
C1308       C  0.12287866  0.37160600  0.46434389    -0.08400
C1309       C  0.07877271  0.38083531  0.46412535     0.62000
H1310       H  0.11761171  0.32906868  0.50684755     0.12700
H1311       H  0.21075452  0.39729909  0.42438067     0.12700
C1312       C  0.25039210  0.34914612  0.46963548     0.62200
F1313       F  0.05800231  0.35959434  0.48976761    -0.22900
F1314       F  0.06240117  0.37154313  0.43115646    -0.20300
F1315       F  0.07378353  0.42046209  0.47105398    -0.19900
F1316       F  0.25867572  0.31022002  0.46314693    -0.20000
F1317       F  0.26409364  0.35972507  0.50328586    -0.20300
F1318       F  0.27118777  0.37149253  0.44481162    -0.23000
C1319       C  0.12433004  0.64592686  0.21541013    -0.05800
C1320       C  0.16463529  0.65847447  0.21497447     0.00100
C1321       C  0.19242535  0.64033487  0.23796009    -0.08500
C1322       C  0.17840295  0.61167081  0.26192598    -0.05900
C1323       C  0.13825644  0.59924757  0.26231187     0.00100
C1324       C  0.11072218  0.61588067  0.23837525    -0.08400
C1325       C  0.06758478  0.60138161  0.23670756     0.62000
H1326       H  0.10374429  0.65929196  0.19692129     0.12700
H1327       H  0.19893732  0.59798050  0.28027729     0.12700
C1328       C  0.23681781  0.65034394  0.23701485     0.62200
F1329       F  0.04681340  0.61892956  0.20921467    -0.22900
F1330       F  0.04867195  0.60985837  0.26848087    -0.20300
F1331       F  0.06604954  0.56110030  0.23102777    -0.19900
F1332       F  0.24342857  0.68633116  0.25350920    -0.20000
F1333       F  0.25052854  0.65190118  0.20222999    -0.20300
F1334       F  0.25903031  0.62252683  0.25470248    -0.23000
C1335       C  0.12493954  0.60384894  0.46586152    -0.05800
C1336       C  0.15240766  0.59640465  0.43896452     0.00100
C1337       C  0.18840042  0.61866068  0.43658945    -0.08500
C1338       C  0.19601855  0.64777359  0.46249760    -0.05900
C1339       C  0.16916573  0.65436769  0.49053582     0.00100
C1340       C  0.13261206  0.63251517  0.49200141    -0.08400
C1341       C  0.10153510  0.63905446  0.52062648     0.62000
H1342       H  0.09762288  0.58622847  0.46648670     0.12700
H1343       H  0.22391130  0.66444501  0.46192968     0.12700
C1344       C  0.21896943  0.61082734  0.40761594     0.62200
F1345       F  0.06579457  0.61968707  0.51269669    -0.22900
F1346       F  0.09395374  0.67880775  0.52364374    -0.20300
F1347       F  0.11499204  0.62471791  0.55283588    -0.19900
F1348       F  0.20252788  0.61732868  0.37435230    -0.20000
F1349       F  0.23113183  0.57221026  0.40951850    -0.20300
F1350       F  0.25243695  0.63517127  0.41103618    -0.23000
C1351       C  0.18821144  0.39004476  0.25476435    -0.05800
C1352       C  0.14731590  0.39451474  0.26048656     0.00100
C1353       C  0.11900084  0.37488907  0.23844705    -0.08500
C1354       C  0.13278762  0.35029082  0.21105830    -0.05900
C1355       C  0.17378512  0.34609128  0.20510138     0.00100
C1356       C  0.20213803  0.36706779  0.22650659    -0.08400
C1357       C  0.24655091  0.36781732  0.21795159     0.62000
H1358       H  0.20901382  0.40652629  0.27160447     0.12700
H1359       H  0.11177969  0.33423878  0.19409871     0.12700
C1360       C  0.07470229  0.38093546  0.24371205     0.62200
F1361       F  0.26817519  0.39189089  0.24123857    -0.22900
F1362       F  0.25218707  0.38196229  0.18376731    -0.20300
F1363       F  0.26202906  0.33063244  0.22021296    -0.19900
F1364       F  0.06626326  0.42027759  0.23898943    -0.20000
F1365       F  0.06374538  0.36988676  0.27781272    -0.20300
F1366       F  0.05191696  0.35893603  0.21973303    -0.23000
C1367       C  0.38837535  0.88818521  0.46293846    -0.05800
C1368       C  0.40189011  0.85890765  0.43965473     0.00100
C1369       C  0.38961912  0.81914969  0.44446752    -0.08500
C1370       C  0.36319472  0.81023657  0.47227127    -0.05900
C1371       C  0.34956514  0.83934755  0.49571782     0.00100
C1372       C  0.36251127  0.87910558  0.49141557    -0.08400
C1373       C  0.34869242  0.91194380  0.51591665     0.62000
H1374       H  0.39914218  0.91813150  0.45898970     0.12700
H1375       H  0.35330367  0.78001675  0.47632741     0.12700
C1376       C  0.40452350  0.78617224  0.42060775     0.62200
F1377       F  0.36343630  0.94834245  0.50522645    -0.22900
F1378       F  0.36191686  0.90588151  0.55040476    -0.20300
F1379       F  0.30746819  0.91324566  0.51563292    -0.19900
F1380       F  0.39092022  0.74948976  0.43176804    -0.20000
F1381       F  0.44574711  0.78565826  0.42073177    -0.20300
F1382       F  0.39121562  0.79175823  0.38614596    -0.23000
C1383       C  0.62560521  0.88568123  0.23717423    -0.05800
C1384       C  0.61114946  0.85737543  0.26123905     0.00100
C1385       C  0.62287382  0.81771076  0.25797541    -0.08500
C1386       C  0.64849274  0.80754055  0.23002308    -0.05900
C1387       C  0.66189780  0.83541963  0.20499813     0.00100
C1388       C  0.65079041  0.87534619  0.20875178    -0.08400
C1389       C  0.66506325  0.90681877  0.18289642     0.62000
H1390       H  0.61576348  0.91571216  0.24015717     0.12700
H1391       H  0.65740952  0.77723395  0.22686287     0.12700
C1392       C  0.60770057  0.78616341  0.28351000     0.62200
F1393       F  0.65565723  0.94424807  0.19451283    -0.22900
F1394       F  0.64703709  0.90070663  0.15003517    -0.20300
F1395       F  0.70607339  0.90550653  0.17922004    -0.19900
F1396       F  0.56644514  0.78410916  0.28270454    -0.20000
F1397       F  0.62028515  0.79511342  0.31783496    -0.20300
F1398       F  0.62167860  0.74925876  0.27472085    -0.23000
C1399       C  0.62237209  0.82013498  0.43801250    -0.05800
C1400       C  0.60971881  0.85897892  0.44139522     0.00100
C1401       C  0.62509885  0.88321564  0.46913738    -0.08500
C1402       C  0.65260964  0.86719296  0.49323986    -0.05900
C1403       C  0.66574415  0.82822179  0.48980128     0.00100
C1404       C  0.65026222  0.80415590  0.46161239    -0.08400
C1405       C  0.66273978  0.76190367  0.45597561     0.62000
H1406       H  0.61002314  0.80238869  0.41636383     0.12700
H1407       H  0.66431837  0.88516290  0.51500214     0.12700
C1408       C  0.61329272  0.92592826  0.47252385     0.62200
F1409       F  0.63949445  0.74262553  0.43043353    -0.22900
F1410       F  0.65928953  0.74089787  0.48736769    -0.20300
F1411       F  0.70171739  0.76192762  0.44430455    -0.19900
F1412       F  0.57248919  0.92842022  0.47695030    -0.20000
F1413       F  0.62434282  0.94586912  0.44192847    -0.20300
F1414       F  0.63172860  0.94437549  0.50141163    -0.23000
C1415       C  0.35819611  0.81433247  0.22983613    -0.05800
C1416       C  0.34811938  0.84195275  0.20375548     0.00100
C1417       C  0.36691987  0.87981664  0.20429222    -0.08500
C1418       C  0.39338704  0.88932079  0.23250798    -0.05900
C1419       C  0.40342587  0.86138124  0.25824482     0.00100
C1420       C  0.38705427  0.82272527  0.25602645    -0.08400
C1421       C  0.40170393  0.78984575  0.27976701     0.62000
H1422       H  0.34469816  0.78510745  0.22836671     0.12700
H1423       H  0.40775812  0.91814461  0.23403245     0.12700
C1424       C  0.35954090  0.90989401  0.17539253     0.62200
F1425       F  0.38414910  0.75381536  0.27093229    -0.22900
F1426       F  0.39291550  0.79794644  0.31492854    -0.20300
F1427       F  0.44253329  0.78632945  0.27612997    -0.19900
F1428       F  0.31908207  0.91656826  0.17251570    -0.20000
F1429       F  0.37386027  0.89618549  0.14317773    -0.20300
F1430       F  0.37881183  0.94550866  0.18266437    -0.23000
C1431       C  0.89118170  0.60769910  0.46745557    -0.05800
C1432       C  0.86345250  0.59774046  0.44068603     0.00100
C1433       C  0.82384492  0.61124373  0.44276316    -0.08500
C1434       C  0.81316547  0.63411021  0.47226968    -0.05900
C1435       C  0.84065880  0.64396579  0.49937318     0.00100
C1436       C  0.88048409  0.63083452  0.49700165    -0.08400
C1437       C  0.91167105  0.64162303  0.52496574     0.62000
H1438       H  0.92101049  0.59617131  0.46540845     0.12700
H1439       H  0.78292376  0.64454354  0.47449172     0.12700
C1440       C  0.79306782  0.60189679  0.41386509     0.62200
F1441       F  0.94922143  0.62902673  0.51540224    -0.22900
F1442       F  0.90179193  0.62411170  0.55703281    -0.20300
F1443       F  0.91366220  0.68210037  0.52927332    -0.19900
F1444       F  0.78882896  0.56163785  0.40896992    -0.20000
F1445       F  0.80521419  0.61898136  0.38230414    -0.20300
F1446       F  0.75591674  0.61645402  0.42222595    -0.23000
C1447       C  0.81720830  0.38398051  0.26654556    -0.05800
C1448       C  0.85801210  0.39320260  0.26305268     0.00100
C1449       C  0.88111142  0.37436260  0.23689753    -0.08500
C1450       C  0.86228235  0.34624135  0.21483676    -0.05900
C1451       C  0.82124036  0.33781383  0.21758821     0.00100
C1452       C  0.79798135  0.35716091  0.24341094    -0.08400
C1453       C  0.75298792  0.35133957  0.24504263     0.62000
H1454       H  0.80028118  0.39933170  0.28670133     0.12700
H1455       H  0.87918390  0.33148677  0.19428820     0.12700
C1456       C  0.92490497  0.38474413  0.23171216     0.62200
F1457       F  0.73573324  0.37631517  0.26959731    -0.22900
F1458       F  0.74391685  0.31315505  0.25497910    -0.20300
F1459       F  0.73629042  0.35870244  0.21193400    -0.19900
F1460       F  0.94614719  0.37549547  0.26210646    -0.20000
F1461       F  0.92935761  0.42459046  0.22504982    -0.20300
F1462       F  0.94103124  0.36439663  0.20323876    -0.23000
C1463       C  0.89022356  0.38011360  0.46278090    -0.05800
C1464       C  0.86195663  0.39326679  0.43820517     0.00100
C1465       C  0.82210234  0.37866635  0.43916237    -0.08500
C1466       C  0.81190657  0.35073662  0.46513809    -0.05900
C1467       C  0.83976331  0.33836662  0.49056281     0.00100
C1468       C  0.87970981  0.35291122  0.48937358    -0.08400
C1469       C  0.91093653  0.34067007  0.51633537     0.62000
H1470       H  0.92030226  0.39238000  0.46166755     0.12700
H1471       H  0.78149614  0.33944485  0.46673864     0.12700
C1472       C  0.79029757  0.39312940  0.41348391     0.62200
F1473       F  0.94923892  0.34923762  0.50454201    -0.22900
F1474       F  0.90819671  0.30052418  0.52218432    -0.20300
F1475       F  0.90514109  0.36064305  0.54810648    -0.19900
F1476       F  0.80037671  0.38347563  0.37883288    -0.20000
F1477       F  0.78685923  0.43354222  0.41626757    -0.20300
F1478       F  0.75316518  0.37637508  0.42056758    -0.23000
C1479       C  0.88633417  0.60774761  0.23294901    -0.05800
C1480       C  0.85991358  0.59956421  0.26092680     0.00100
C1481       C  0.82394862  0.62085602  0.26342890    -0.08500
C1482       C  0.81546218  0.64885046  0.23703374    -0.05900
C1483       C  0.84009053  0.65454728  0.20712093     0.00100
C1484       C  0.87707191  0.63468149  0.20579691    -0.08400
C1485       C  0.90690515  0.64156534  0.17609028     0.62000
H1486       H  0.91396536  0.59173944  0.23200056     0.12700
H1487       H  0.78777484  0.66474868  0.23875210     0.12700
C1488       C  0.79287255  0.61496300  0.29247531     0.62200
F1489       F  0.94346152  0.62512111  0.18370687    -0.22900
F1490       F  0.91316287  0.68156848  0.17119804    -0.20300
F1491       F  0.89254515  0.62446796  0.14494245    -0.19900
F1492       F  0.75548967  0.61049990  0.27700344    -0.20000
F1493       F  0.79295027  0.64800085  0.31422981    -0.20300
F1494       F  0.79899935  0.58216784  0.31329460    -0.23000
C1495       C  0.59750156  0.16243114  0.45309294    -0.05800
C1496       C  0.59754225  0.12176699  0.44660289     0.00100
C1497       C  0.62585170  0.09781054  0.46360446    -0.08500
C1498       C  0.65368192  0.11585563  0.48707260    -0.05900
C1499       C  0.65399297  0.15672806  0.49293212     0.00100
C1500       C  0.62579156  0.18054449  0.47570206    -0.08400
C1501       C  0.62615526  0.22498952  0.48072606     0.62000
H1502       H  0.57562895  0.17999868  0.43939108     0.12700
H1503       H  0.67535706  0.09830090  0.50102537     0.12700
C1504       C  0.62651883  0.05371477  0.45681297     0.62200
F1505       F  0.59439460  0.24220373  0.46345988    -0.22900
F1506       F  0.66108194  0.24075532  0.46684031    -0.20300
F1507       F  0.62393614  0.23456705  0.51659369    -0.19900
F1508       F  0.58911311  0.03710251  0.46257771    -0.20000
F1509       F  0.65319935  0.03528330  0.47919419    -0.20300
F1510       F  0.63757590  0.04655356  0.42189152    -0.23000
C1511       C  0.39445421  0.16253769  0.26247895    -0.05800
C1512       C  0.39167186  0.12175325  0.26791548     0.00100
C1513       C  0.36260651  0.09887310  0.24919351    -0.08500
C1514       C  0.33831575  0.11770752  0.22408308    -0.05900
C1515       C  0.34174075  0.15836540  0.21814722     0.00100
C1516       C  0.36966047  0.18142523  0.23795790    -0.08400
C1517       C  0.37408820  0.22546053  0.23226763     0.62000
H1518       H  0.41654553  0.17942253  0.27761531     0.12700
H1519       H  0.31657508  0.10080938  0.20856587     0.12700
C1520       C  0.35744555  0.05500830  0.25548509     0.62200
F1521       F  0.40398500  0.24212066  0.25341504    -0.22900
F1522       F  0.33872381  0.24351441  0.24071315    -0.20300
F1523       F  0.38337240  0.23276887  0.19696923    -0.19900
F1524       F  0.34818874  0.04825327  0.29086582    -0.20000
F1525       F  0.39235625  0.03607645  0.24715566    -0.20300
F1526       F  0.32698212  0.03874510  0.23471191    -0.23000
C1527       C  0.34294163  0.10796554  0.49429388    -0.05800
C1528       C  0.34786119  0.14727349  0.50518643     0.00100
C1529       C  0.37901112  0.17083056  0.49076801    -0.08500
C1530       C  0.40294355  0.15483922  0.46395419    -0.05900
C1531       C  0.39811952  0.11550780  0.45288563     0.00100
C1532       C  0.36870782  0.09109903  0.46917828    -0.08400
C1533       C  0.36426006  0.04721209  0.46250119     0.62000
H1534       H  0.31953954  0.08998340  0.50630589     0.12700
H1535       H  0.42601833  0.17283654  0.45153551     0.12700
C1536       C  0.38733514  0.21234522  0.50441133     0.62200
F1537       F  0.36629532  0.02803102  0.49491036    -0.22900
F1538       F  0.39364517  0.03236719  0.44074192    -0.20300
F1539       F  0.32750477  0.03906771  0.44696003    -0.19900
F1540       F  0.39417304  0.21141318  0.54083916    -0.20000
F1541       F  0.35495596  0.23571266  0.49741065    -0.20300
F1542       F  0.42060703  0.22937341  0.48850200    -0.23000
C1543       C  0.64655667  0.10848756  0.21982833    -0.05800
C1544       C  0.64119949  0.14736215  0.20818295     0.00100
C1545       C  0.60988845  0.16988384  0.22268755    -0.08500
C1546       C  0.58600509  0.15325745  0.24936392    -0.05900
C1547       C  0.59170126  0.11499960  0.26151085     0.00100
C1548       C  0.62203524  0.09173348  0.24656593    -0.08400
C1549       C  0.62868795  0.04999050  0.25922945     0.62000
H1550       H  0.67052353  0.09168718  0.20834867     0.12700
H1551       H  0.56240981  0.17014180  0.26138270     0.12700
C1552       C  0.60108685  0.21121873  0.21009291     0.62200
F1553       F  0.59281877  0.02909292  0.25990715    -0.22900
F1554       F  0.64495290  0.05090427  0.29321177    -0.20300
F1555       F  0.65443184  0.03012353  0.23696147    -0.19900
F1556       F  0.59363760  0.21074189  0.17380320    -0.20000
F1557       F  0.63323938  0.23602535  0.21752300    -0.20300
F1558       F  0.56786245  0.22640207  0.22681385    -0.23000
C1559       C  0.60628839  0.37111049  0.00818960    -0.05800
C1560       C  0.62874135  0.34133887  0.99203866     0.00100
C1561       C  0.62609832  0.33656314  0.95426053    -0.08500
C1562       C  0.60450502  0.36422694  0.93427755    -0.05900
C1563       C  0.58365013  0.39480812  0.95064744     0.00100
C1564       C  0.58289143  0.39703426  0.98847265    -0.08400
C1565       C  0.55770510  0.42519406  0.00998205     0.62000
H1566       H  0.60677744  0.37450532  0.03698093     0.12700
H1567       H  0.60431910  0.36262023  0.90538596     0.12700
C1568       C  0.64427759  0.30192370  0.93485329     0.62200
F1569       F  0.58241661  0.44932968  0.03061488    -0.22900
F1570       F  0.53317822  0.40343597  0.03239412    -0.20300
F1571       F  0.53367653  0.44854978  0.98932085    -0.19900
F1572       F  0.63316227  0.26723688  0.95160894    -0.20000
F1573       F  0.68540285  0.30585084  0.93455253    -0.20300
F1574       F  0.63125630  0.29923717  0.89978979    -0.23000
C1575       C  0.36178584  0.60436284  0.93549639    -0.05800
C1576       C  0.39508911  0.58782090  0.95203536     0.00100
C1577       C  0.40348161  0.59698106  0.98824826    -0.08500
C1578       C  0.37917622  0.62371091  0.00622314    -0.05900
C1579       C  0.34523431  0.64013226  0.99034104     0.00100
C1580       C  0.33606012  0.62989984  0.95409965    -0.08400
C1581       C  0.29862314  0.64384772  0.93533529     0.62000
H1582       H  0.35573243  0.59633147  0.90796323     0.12700
H1583       H  0.38669222  0.63178057  0.03344531     0.12700
C1584       C  0.43746429  0.57792768  0.00843120     0.62200
F1585       F  0.29438916  0.62758391  0.90151356    -0.22900
F1586       F  0.30008082  0.68426127  0.93150232    -0.20300
F1587       F  0.26530720  0.63297332  0.95493368    -0.19900
F1588       F  0.47359276  0.59141724  0.99538209    -0.20000
F1589       F  0.43500072  0.53742501  0.00462420    -0.20300
F1590       F  0.43649108  0.58652630  0.04459940    -0.23000
C1591       C  0.57276096  0.61927768  0.97608478    -0.05800
C1592       C  0.58838819  0.59996884  0.94617058     0.00100
C1593       C  0.62770721  0.60963023  0.93499308    -0.08500
C1594       C  0.65160179  0.63421084  0.95682189    -0.05900
C1595       C  0.63652541  0.65181143  0.98780542     0.00100
C1596       C  0.59562561  0.64606455  0.99654377    -0.08400
C1597       C  0.57577449  0.66776977  0.02715282     0.62000
H1598       H  0.54262974  0.61210406  0.98420619     0.12700
H1599       H  0.68252003  0.63958003  0.94953593     0.12700
C1600       C  0.64569125  0.59559752  0.90034943     0.62200
F1601       F  0.53454343  0.66420465  0.02548846    -0.22900
F1602       F  0.58564859  0.70750499  0.02576430    -0.20300
F1603       F  0.58795410  0.65250702  0.05945427    -0.19900
F1604       F  0.61786948  0.57716008  0.87825183    -0.20000
F1605       F  0.67614840  0.56983235  0.90737069    -0.20300
F1606       F  0.66153125  0.62786578  0.88255798    -0.23000
C1607       C  0.42201559  0.39175948  0.97945120    -0.05800
C1608       C  0.41342221  0.38855055  0.94301047     0.00100
C1609       C  0.38743441  0.35843380  0.93045793    -0.08500
C1610       C  0.36867145  0.33352520  0.95543450    -0.05900
C1611       C  0.37525438  0.33778487  0.99256017     0.00100
C1612       C  0.40447191  0.36623284  0.00458026    -0.08400
C1613       C  0.41837421  0.36978697  0.04320015     0.62000
H1614       H  0.44219096  0.41530882  0.98806632     0.12700
H1615       H  0.34776973  0.31113546  0.94587003     0.12700
C1616       C  0.37903062  0.35346799  0.89082615     0.62200
F1617       F  0.45048080  0.39577864  0.04701342    -0.22900
F1618       F  0.43050071  0.33341143  0.05508325    -0.20300
F1619       F  0.38808284  0.38359210  0.06453527    -0.19900
F1620       F  0.41355062  0.34243500  0.87363533    -0.20000
F1621       F  0.36626532  0.38855128  0.87655635    -0.20300
F1622       F  0.34974235  0.32499559  0.88429349    -0.23000
C1623       C  0.57002986  0.61062320  0.72013862    -0.05800
C1624       C  0.57903740  0.61231688  0.75666195     0.00100
C1625       C  0.60818454  0.63963162  0.76920183    -0.08500
C1626       C  0.63043251  0.66150622  0.74442526    -0.05900
C1627       C  0.62497889  0.65680437  0.70741767     0.00100
C1628       C  0.59195856  0.63298338  0.69508769    -0.08400
C1629       C  0.57924417  0.63092951  0.65616522     0.62000
H1630       H  0.54706441  0.58985388  0.71123724     0.12700
H1631       H  0.65425841  0.68071925  0.75414653     0.12700
C1632       C  0.61949771  0.64225363  0.80821405     0.62200
F1633       F  0.54308486  0.61102957  0.65159559    -0.22900
F1634       F  0.60743762  0.61142585  0.63628237    -0.20300
F1635       F  0.57463319  0.66871056  0.64340644    -0.19900
F1636       F  0.63889256  0.60824862  0.81724449    -0.20000
F1637       F  0.58583562  0.64625581  0.82906002    -0.20300
F1638       F  0.64482455  0.67414575  0.81528323    -0.23000
C1639       C  0.62374130  0.39249802  0.76149594    -0.05800
C1640       C  0.59372023  0.41287241  0.74376839     0.00100
C1641       C  0.58887316  0.40804961  0.70645894    -0.08500
C1642       C  0.61414824  0.38237313  0.68813376    -0.05900
C1643       C  0.64451949  0.36145103  0.70554353     0.00100
C1644       C  0.64920427  0.36658838  0.74323300    -0.08400
C1645       C  0.68014599  0.34466151  0.76463444     0.62000
H1646       H  0.62679257  0.39701893  0.79001827     0.12700
H1647       H  0.61012681  0.37863176  0.65964503     0.12700
C1648       C  0.55764627  0.43079108  0.68590660     0.62200
F1649       F  0.68020796  0.35527618  0.80033684    -0.22900
F1650       F  0.71796599  0.35248379  0.75138409    -0.20300
F1651       F  0.67158910  0.30479902  0.76277717    -0.19900
F1652       F  0.56555973  0.47077621  0.68906392    -0.20000
F1653       F  0.52009976  0.42244501  0.69925992    -0.20300
F1654       F  0.55718811  0.42126013  0.64993231    -0.23000
C1655       C  0.37452024  0.38120496  0.77139917    -0.05800
C1656       C  0.39855158  0.40782234  0.75214697     0.00100
C1657       C  0.39593655  0.40877381  0.71442157    -0.08500
C1658       C  0.37012129  0.38215499  0.69737320    -0.05900
C1659       C  0.34740551  0.35376912  0.71600928     0.00100
C1660       C  0.34829088  0.35428519  0.75397717    -0.08400
C1661       C  0.32136775  0.32764733  0.77611427     0.62000
H1662       H  0.37643358  0.38195577  0.80026121     0.12700
H1663       H  0.36832321  0.38363245  0.66850744     0.12700
C1664       C  0.41951830  0.43631090  0.69001996     0.62200
F1665       F  0.32624489  0.33439095  0.81230474    -0.22900
F1666       F  0.32988470  0.28861053  0.76933418    -0.20300
F1667       F  0.28186730  0.33473570  0.76783397    -0.19900
F1668       F  0.44551023  0.46172093  0.70771854    -0.20000
F1669       F  0.39320727  0.45861091  0.67041363    -0.20300
F1670       F  0.44153189  0.41390967  0.66654561    -0.23000
C1671       C  0.36060657  0.65771606  0.74851589    -0.05800
C1672       C  0.36052409  0.64907410  0.71161209     0.00100
C1673       C  0.38580184  0.61841422  0.69890141    -0.08500
C1674       C  0.40864824  0.59758640  0.72382757    -0.05900
C1675       C  0.40674591  0.60526468  0.76048952     0.00100
C1676       C  0.38339737  0.63639253  0.77310035    -0.08400
C1677       C  0.38175811  0.64609656  0.81260143     0.62000
H1678       H  0.34209572  0.68112383  0.75835714     0.12700
H1679       H  0.42709721  0.57351113  0.71520740     0.12700
C1680       C  0.38801655  0.60566192  0.65987979     0.62200
F1681       F  0.36006651  0.67961505  0.81920629    -0.22900
F1682       F  0.42000593  0.65258734  0.82565320    -0.20300
F1683       F  0.36408436  0.61499948  0.83072128    -0.19900
F1684       F  0.40243887  0.63632374  0.63912601    -0.20000
F1685       F  0.35050573  0.59365838  0.64812911    -0.20300
F1686       F  0.41332553  0.57432882  0.65488038    -0.23000
loop_ 
_geom_bond_atom_site_label_1 
_geom_bond_atom_site_label_2 
_geom_bond_distance 
_geom_bond_site_symmetry_2 
_ccdc_geom_bond_type 
N1            C6   1.358       .  A
N1            C5   1.355       .  A
N1           H33   1.040       .  S
N2            C9   1.346       .  A
N2           C10   1.354       .  A
N3            C8   1.352       .  A
N3            C7   1.352       .  A
N3           H34   1.045       .  S
N4           C11   1.350       .  A
N4           C12   1.353       .  A
C5           C13   1.388       .  A
C5           C21   1.417       .  A
C6           C22   1.418       .  A
C6           C14   1.386       .  A
C7           C15   1.385       .  A
C7           C24   1.403       .  A
C8           C23   1.403       .  A
C8           C16   1.384       .  A
C9           C21   1.413       .  A
C9           C17   1.389       .  A
C10          C24   1.411       .  A
C10          C18   1.383       .  A
C11          C19   1.386       .  A
C11          C22   1.413       .  A
C12          C20   1.384       .  A
C12          C23   1.413       .  A
C13          C14   1.375       .  A
C13          H25   1.082       .  S
C14          H26   1.082       .  S
C15          C16   1.369       .  A
C15          H27   1.082       .  S
C16          H28   1.083       .  S
C17          C18   1.371       .  A
C17          H29   1.082       .  S
C18          H30   1.082       .  S
C19          C20   1.373       .  A
C19          H31   1.082       .  S
C20          H32   1.082       .  S
C21        C1656   1.479       .  S
C22        C1640   1.495       .  S
C23        C1624   1.485       .  S
C24        C1675   1.486       .  S
N35          C40   1.357       .  A
N35          C39   1.358       .  A
N35          H67   1.042       .  S
N36          C43   1.348       .  A
N36          C44   1.351       .  A
N37          C42   1.350       .  A
N37          C41   1.354       .  A
N37          H68   1.045       .  S
N38          C45   1.344       .  A
N38          C46   1.353       .  A
C39          C47   1.383       .  A
C39          C55   1.414       .  A
C40          C56   1.422       .  A
C40          C48   1.388       .  A
C41          C49   1.384       .  A
C41          C58   1.405       .  A
C42          C57   1.408       .  A
C42          C50   1.389       .  A
C43          C55   1.411       .  A
C43          C51   1.386       .  A
C44          C58   1.414       .  A
C44          C52   1.387       .  A
C45          C53   1.390       .  A
C45          C56   1.416       .  A
C46          C54   1.382       .  A
C46          C57   1.412       .  A
C47          C48   1.375       .  A
C47          H59   1.082       .  S
C48          H60   1.082       .  S
C49          C50   1.371       .  A
C49          H61   1.083       .  S
C50          H62   1.083       .  S
C51          C52   1.378       .  A
C51          H63   1.082       .  S
C52          H64   1.083       .  S
C53          C54   1.376       .  A
C53          H65   1.081       .  S
C54          H66   1.082       .  S
C55        C1576   1.496       .  S
C56        C1592   1.494       .  S
C57        C1563   1.492       .  S
C58        C1608   1.481       .  S
N69          C74   1.351       .  A
N69          C73   1.351       .  A
N69         H101   1.033       .  S
N70          C77   1.350       .  A
N70          C78   1.350       .  A
N71          C76   1.353       .  A
N71          C75   1.354       .  A
N71         H102   1.031       .  S
N72          C79   1.352       .  A
N72          C80   1.351       .  A
C73          C81   1.386       .  A
C73          C89   1.413       .  A
C74          C90   1.414       .  A
C74          C82   1.386       .  A
C75          C83   1.387       .  A
C75          C92   1.420       .  A
C76          C91   1.418       .  A
C76          C84   1.386       .  A
C77          C89   1.411       .  A
C77          C85   1.387       .  A
C78          C92   1.412       .  A
C78          C86   1.388       .  A
C79          C87   1.386       .  A
C79          C90   1.413       .  A
C80          C88   1.387       .  A
C80          C91   1.414       .  A
C81          C82   1.374       .  A
C81          H93   1.082       .  S
C82          H94   1.082       .  S
C83          C84   1.375       .  A
C83          H95   1.082       .  S
C84          H96   1.082       .  S
C85          C86   1.368       .  A
C85          H97   1.083       .  S
C86          H98   1.082       .  S
C87          C88   1.370       .  A
C87          H99   1.082       .  S
C88         H100   1.082       .  S
C89        C1496   1.480       .  S
C90        C1531   1.485       .  S
C91        C1512   1.486       .  S
C92        C1547   1.485       .  S
N103        C108   1.352       .  A
N103        C107   1.355       .  A
N103        H135   1.040       .  S
N104        C111   1.350       .  A
N104        C112   1.349       .  A
N105        C110   1.352       .  A
N105        C109   1.350       .  A
N105        H136   1.040       .  S
N106        C113   1.346       .  A
N106        C114   1.347       .  A
C107        C115   1.386       .  A
C107        C123   1.416       .  A
C108        C124   1.415       .  A
C108        C116   1.388       .  A
C109        C117   1.388       .  A
C109        C126   1.410       .  A
C110        C125   1.408       .  A
C110        C118   1.386       .  A
C111        C123   1.409       .  A
C111        C119   1.385       .  A
C112        C126   1.406       .  A
C112        C120   1.385       .  A
C113        C121   1.388       .  A
C113        C124   1.404       .  A
C114        C122   1.385       .  A
C114        C125   1.402       .  A
C115        C116   1.374       .  A
C115        H127   1.082       .  S
C116        H128   1.082       .  S
C117        C118   1.368       .  A
C117        H129   1.082       .  S
C118        H130   1.082       .  S
C119        C120   1.373       .  A
C119        H131   1.082       .  S
C120        H132   1.082       .  S
C121        C122   1.370       .  A
C121        H133   1.082       .  S
C122        H134   1.082       .  S
C123       C1480   1.492       .  S
C124       C1448   1.476       .  S
C125       C1464   1.477       .  S
C126       C1432   1.479       .  S
N137        C142   1.354       .  A
N137        C141   1.354       .  A
N137        H169   1.037       .  S
N138        C145   1.349       .  A
N138        C146   1.349       .  A
N139        C144   1.354       .  A
N139        C143   1.355       .  A
N139        H170   1.038       .  S
N140        C147   1.349       .  A
N140        C148   1.349       .  A
C141        C149   1.387       .  A
C141        C157   1.416       .  A
C142        C158   1.416       .  A
C142        C150   1.387       .  A
C143        C151   1.386       .  A
C143        C160   1.415       .  A
C144        C159   1.416       .  A
C144        C152   1.388       .  A
C145        C157   1.409       .  A
C145        C153   1.386       .  A
C146        C160   1.410       .  A
C146        C154   1.387       .  A
C147        C155   1.388       .  A
C147        C158   1.411       .  A
C148        C156   1.387       .  A
C148        C159   1.410       .  A
C149        C150   1.369       .  A
C149        H161   1.082       .  S
C150        H162   1.082       .  S
C151        C152   1.369       .  A
C151        H163   1.082       .  S
C152        H164   1.082       .  S
C153        C154   1.373       .  A
C153        H165   1.082       .  S
C154        H166   1.083       .  S
C155        C156   1.374       .  A
C155        H167   1.083       .  S
C156        H168   1.082       .  S
C157       C1384   1.486       .  S
C158       C1419   1.485       .  S
C159       C1368   1.484       .  S
C160       C1400   1.487       .  S
N171        C176   1.353       .  A
N171        C175   1.350       .  A
N171        H203   1.040       .  S
N172        C179   1.343       .  A
N172        C180   1.347       .  A
N173        C178   1.350       .  A
N173        C177   1.357       .  A
N173        H204   1.040       .  S
N174        C181   1.352       .  A
N174        C182   1.348       .  A
C175        C183   1.387       .  A
C175        C191   1.410       .  A
C176        C192   1.414       .  A
C176        C184   1.388       .  A
C177        C185   1.384       .  A
C177        C194   1.411       .  A
C178        C193   1.415       .  A
C178        C186   1.390       .  A
C179        C191   1.401       .  A
C179        C187   1.387       .  A
C180        C194   1.401       .  A
C180        C188   1.384       .  A
C181        C189   1.385       .  A
C181        C192   1.410       .  A
C182        C190   1.387       .  A
C182        C193   1.411       .  A
C183        C184   1.373       .  A
C183        H195   1.083       .  S
C184        H196   1.082       .  S
C185        C186   1.370       .  A
C185        H197   1.082       .  S
C186        H198   1.082       .  S
C187        C188   1.371       .  A
C187        H199   1.083       .  S
C188        H200   1.082       .  S
C189        C190   1.369       .  A
C189        H201   1.082       .  S
C190        H202   1.082       .  S
C191       C1336   1.469       .  S
C192       C1307   1.486       .  S
C193       C1352   1.476       .  S
C194       C1323   1.485       .  S
Zr205       O206   2.447       .  S
Zr205       O207   2.426       .  S
Zr205       O208   2.421       .  S
Zr205       O211   2.431       .  S
Zr205       O213   2.382       .  S
Zr205       O214   2.374       .  S
Zr205       O215   2.410       .  S
Zr205       O216   2.394       .  S
O206        H262   0.990       .  S
O206        H270   0.988       .  S
O207        C227   1.279       .  A
O208        C229   1.279       .  A
O209       Zr219   2.419       .  S
O209        C228   1.280       .  A
O210       Zr218   2.433       .  S
O210        C229   1.283       .  A
O211        C228   1.282       .  A
O212       Zr220   2.407       .  S
O212        C227   1.279       .  A
O213       Zr218   2.400       .  S
O213       Zr220   2.378       .  S
O214       Zr219   2.381       .  S
O214       Zr220   2.381       .  S
O214        H249   0.966       .  S
O215       Zr218   2.397       .  S
O215       Zr235   2.383       .  S
O215        H252   0.963       .  S
O216       Zr219   2.382       .  S
O216       Zr235   2.393       .  S
Zr217       O242   2.437   1_554  S
Zr217       O236   2.439       .  S
Zr217       O244   2.454   1_554  S
Zr217       O232   2.440   1_554  S
Zr217       O223   2.397       .  S
Zr217       O224   2.411       .  S
Zr217       O225   2.384       .  S
Zr217       O226   2.380       .  S
Zr218       O237   2.438       .  S
Zr218       O230   2.439       .  S
Zr218       O231   2.418       .  S
Zr218       O224   2.407       .  S
Zr218       O225   2.401       .  S
Zr219       O221   2.438       .  S
Zr219       O243   2.438       .  S
Zr219       O245   2.392       .  S
Zr219       O223   2.387       .  S
Zr219       O226   2.392       .  S
Zr220       O246   2.434       .  S
Zr220       O247   2.435       .  S
Zr220       O222   2.441       .  S
Zr220       O223   2.386       .  S
Zr220       O224   2.388       .  S
O221        H258   0.990       .  S
O222        H253   0.990       .  S
O222        H267   0.990       .  S
O224        H250   0.964       .  S
O225       Zr235   2.378       .  S
O226       Zr235   2.377       .  S
O226        H251   0.965       .  S
C227       C1288   1.471       .  S
C228       C1515   1.470       .  S
C229       C1355   1.464       .  S
O230        H266   0.990       .  S
O231        C233   1.282   1_554  A
O232        C233   1.281       .  A
C233       C1256   1.465       .  S
O234       Zr235   2.433       .  S
O234        H263   0.990       .  S
Zr235       O238   2.436       .  S
Zr235       O239   2.434       .  S
Zr235       O240   2.412       .  S
O236        C241   1.284       .  A
O237        H254   0.990       .  S
O237        H269   0.990       .  S
O238        H255   0.990       .  S
O239        H259   0.990       .  S
O239        H268   0.989       .  S
O240        C241   1.276       .  A
C241       C1611   1.501   1_554  S
O242        H261   0.990       .  S
O242        H265   0.990       .  S
O243        H257   0.990       .  S
O243        H264   0.990       .  S
O244        C248   1.286   1_556  A
O245        C248   1.279       .  A
O246        H256   0.991       .  S
O247        H260   0.990       .  S
C248       C1272   1.497   1_554  S
Zr271       O272   2.440   1_554  S
Zr271       O273   2.439   1_554  S
Zr271       O274   2.403   1_554  S
Zr271       O277   2.396   1_554  S
Zr271       O279   2.380       .  S
Zr271       O280   2.374       .  S
Zr271       O281   2.400       .  S
Zr271       O282   2.397       .  S
O272        H328   0.990       .  S
O272        H336   0.990       .  S
O273        C293   1.282   1_556  A
O274        C295   1.277       .  A
O275       Zr285   2.415       .  S
O275        C294   1.281       .  A
O276       Zr284   2.421       .  S
O276        C295   1.282   1_554  A
O277        C294   1.278   1_556  A
O278       Zr286   2.437       .  S
O278        C293   1.287       .  A
O279       Zr284   2.399       .  S
O279       Zr286   2.378       .  S
O280       Zr285   2.384       .  S
O280       Zr286   2.369       .  S
O280        H315   0.966       .  S
O281       Zr284   2.395       .  S
O281       Zr301   2.376       .  S
O281        H318   0.965       .  S
O282       Zr285   2.388       .  S
O282       Zr301   2.396       .  S
Zr283       O308   2.439       .  S
Zr283       O302   2.433       .  S
Zr283       O310   2.449       .  S
Zr283       O298   2.440       .  S
Zr283       O289   2.399       .  S
Zr283       O290   2.413       .  S
Zr283       O291   2.380       .  S
Zr283       O292   2.379       .  S
Zr284       O303   2.436       .  S
Zr284       O296   2.437       .  S
Zr284       O297   2.424       .  S
Zr284       O290   2.401       .  S
Zr284       O291   2.395       .  S
Zr285       O287   2.436       .  S
Zr285       O309   2.437       .  S
Zr285       O311   2.406       .  S
Zr285       O289   2.391       .  S
Zr285       O292   2.386       .  S
Zr286       O312   2.436       .  S
Zr286       O313   2.439       .  S
Zr286       O288   2.438       .  S
Zr286       O289   2.398       .  S
Zr286       O290   2.389       .  S
O287        H324   0.990       .  S
O288        H319   0.990       .  S
O288        H333   0.990       .  S
O290        H316   0.964       .  S
O291       Zr301   2.380       .  S
O292       Zr301   2.382       .  S
O292        H317   0.966       .  S
C293       C1579   1.505   1_554  S
C294       C1208   1.461   1_554  S
C295       C1227   1.452       .  S
O296        H332   0.990       .  S
O297        C299   1.281       .  A
O298        C299   1.285       .  A
C299       C1416   1.480       .  S
O300       Zr301   2.438       .  S
O300        H329   0.990       .  S
Zr301       O304   2.439       .  S
Zr301       O305   2.440       .  S
Zr301       O306   2.391       .  S
O302        C307   1.282       .  A
O303        H320   0.990       .  S
O303        H335   0.990       .  S
O304        H321   0.990       .  S
O305        H325   0.990       .  S
O305        H334   0.990       .  S
O306        C307   1.275       .  A
C307       C1240   1.475       .  S
O308        H327   0.990       .  S
O308        H331   0.990       .  S
O309        H323   0.990       .  S
O309        H330   0.990       .  S
O310        C314   1.287       .  A
O311        C314   1.279       .  A
O312        H322   0.990       .  S
O313        H326   0.990       .  S
C314       C1320   1.478       .  S
Zr337       O338   2.441       .  S
Zr337       O339   2.439       .  S
Zr337       O340   2.434       .  S
Zr337       O343   2.429       .  S
Zr337       O345   2.375       .  S
Zr337       O346   2.379       .  S
Zr337       O347   2.402       .  S
Zr337       O348   2.396       .  S
O338        H394   0.990       .  S
O338        H402   0.991       .  S
O339        C359   1.284       .  A
O340        C361   1.283       .  A
O341       Zr351   2.419       .  S
O341        C360   1.280       .  A
O342       Zr350   2.398       .  S
O342        C361   1.276       .  A
O343        C360   1.284       .  A
O344       Zr352   2.403       .  S
O344        C359   1.278       .  A
O345       Zr350   2.392       .  S
O345       Zr352   2.379       .  S
O346       Zr351   2.385       .  S
O346       Zr352   2.380       .  S
O346        H381   0.966       .  S
O347       Zr350   2.393       .  S
O347       Zr367   2.392       .  S
O347        H384   0.966       .  S
O348       Zr351   2.381       .  S
O348       Zr367   2.392       .  S
Zr349       O374   2.442       .  S
Zr349       O368   2.454       .  S
Zr349       O376   2.410       .  S
Zr349       O364   2.445       .  S
Zr349       O355   2.447       .  S
Zr349       O356   2.403       .  S
Zr349       O357   2.369       .  S
Zr349       O358   2.429       .  S
Zr350       O369   2.439       .  S
Zr350       O362   2.431       .  S
Zr350       O363   2.408       .  S
Zr350       O356   2.394       .  S
Zr350       O357   2.392       .  S
Zr351       O353   2.440       .  S
Zr351       O375   2.441       .  S
Zr351       O377   2.369       .  S
Zr351       O355   2.399       .  S
Zr351       O358   2.419       .  S
Zr352       O378   2.436       .  S
Zr352       O379   2.437       .  S
Zr352       O354   2.441       .  S
Zr352       O355   2.384       .  S
Zr352       O356   2.392       .  S
O353        H390   0.989       .  S
O354        H385   0.990       .  S
O354        H399   0.990       .  S
O356        H382   0.963       .  S
O357       Zr367   2.389       .  S
O358       Zr367   2.374       .  S
O358        H383   0.968       .  S
C359       C1176   1.476       .  S
C360       C1371   1.475       .  S
C361       C1339   1.471       .  S
O362        H398   0.990       .  S
O363        C365   1.279       .  A
O364        C365   1.283       .  A
C365       C1160   1.467       .  S
O366       Zr367   2.436       .  S
O366        H395   0.990       .  S
Zr367       O370   2.437       .  S
Zr367       O371   2.441       .  S
Zr367       O372   2.407       .  S
O368        C373   1.289       .  A
O369        H386   0.990       .  S
O369        H401   0.990       .  S
O370        H387   0.990       .  S
O371        H391   0.990       .  S
O371        H400   0.989       .  S
O372        C373   1.275       .  A
C373       C1672   1.504       .  S
O374        H393   0.991       .  S
O374        H397   0.991       .  S
O375        H389   0.989       .  S
O375        H396   0.990       .  S
O376        C380   1.265       .  A
O377        C380   1.259       .  A
O378        H388   0.990       .  S
O379        H392   0.990       .  S
C380       C1192   1.470       .  S
Zr403       O404   2.442       .  S
Zr403       O405   2.431       .  S
Zr403       O406   2.439       .  S
Zr403       O409   2.443       .  S
Zr403       O411   2.385       .  S
Zr403       O412   2.387       .  S
Zr403       O413   2.406       .  S
Zr403       O414   2.384       .  S
O404        H460   0.989       .  S
O404        H468   0.991       .  S
O405        C425   1.280       .  A
O406        C427   1.284       .  A
O407       Zr417   2.417       .  S
O407        C426   1.281       .  A
O408       Zr416   2.403       .  S
O408        C427   1.280       .  A
O409        C426   1.287       .  A
O410       Zr418   2.382       .  S
O410        C425   1.276       .  A
O411       Zr416   2.394       .  S
O411       Zr418   2.374       .  S
O412       Zr417   2.391       .  S
O412       Zr418   2.381       .  S
O412        H447   0.966       .  S
O413       Zr416   2.404       .  S
O413       Zr433   2.373       .  S
O413        H450   0.963       .  S
O414       Zr417   2.383       .  S
O414       Zr433   2.366       .  S
Zr415       O440   2.437       .  S
Zr415       O434   2.410       .  S
Zr415       O442   2.446       .  S
Zr415       O430   2.446       .  S
Zr415       O421   2.386       .  S
Zr415       O422   2.396       .  S
Zr415       O423   2.381       .  S
Zr415       O424   2.385       .  S
Zr416       O435   2.433       .  S
Zr416       O428   2.435       .  S
Zr416       O429   2.425       .  S
Zr416       O422   2.396       .  S
Zr416       O423   2.387       .  S
Zr417       O419   2.437       .  S
Zr417       O441   2.436       .  S
Zr417       O443   2.409       .  S
Zr417       O421   2.388       .  S
Zr417       O424   2.390       .  S
Zr418       O444   2.432       .  S
Zr418       O445   2.433       .  S
Zr418       O420   2.440       .  S
Zr418       O421   2.377       .  S
Zr418       O422   2.371       .  S
O419        H456   0.990       .  S
O420        H451   0.990       .  S
O420        H465   0.989       .  S
O422        H448   0.962       .  S
O423       Zr433   2.382       .  S
O424       Zr433   2.387       .  S
O424        H449   0.966       .  S
C425       C1659   1.489       .  S
C426       C1144   1.482       .  S
C427       C1128   1.457       .  S
O428        H464   0.990       .  S
O429        C431   1.283       .  A
O430        C431   1.284       .  A
C431       C1528   1.468       .  S
O432       Zr433   2.436       .  S
O432        H461   0.990       .  S
Zr433       O436   2.438       .  S
Zr433       O437   2.436       .  S
Zr433       O438   2.367       .  S
O434        C439   1.278       .  A
O435        H452   0.990       .  S
O435        H467   0.989       .  S
O436        H453   0.990       .  S
O437        H457   0.990       .  S
O437        H466   0.989       .  S
O438        C439   1.272       .  A
C439       C1112   1.456       .  S
O440        H459   0.990       .  S
O440        H463   0.987       .  S
O441        H455   0.990       .  S
O441        H462   0.990       .  S
O442        C446   1.285       .  A
O443        C446   1.280       .  A
O444        H454   0.990       .  S
O445        H458   0.990       .  S
C446       C1304   1.472       .  S
Zr469       O470   2.443       .  S
Zr469       O471   2.416       .  S
Zr469       O472   2.458       .  S
Zr469       O475   2.431       .  S
Zr469       O477   2.377       .  S
Zr469       O478   2.391       .  S
Zr469       O479   2.403       .  S
Zr469       O480   2.393       .  S
O470        H526   0.990       .  S
O470        H534   0.991       .  S
O471        C491   1.278       .  A
O472        C493   1.287       .  A
O473       Zr483   2.425       .  S
O473        C492   1.283       .  A
O474       Zr482   2.439       .  S
O474        C493   1.284       .  A
O475        C492   1.285       .  A
O476       Zr484   2.381       .  S
O476        C491   1.273       .  A
O477       Zr482   2.394       .  S
O477       Zr484   2.391       .  S
O478       Zr483   2.390       .  S
O478       Zr484   2.380       .  S
O478        H513   0.966       .  S
O479       Zr482   2.401       .  S
O479       Zr499   2.393       .  S
O479        H516   0.965       .  S
O480       Zr483   2.393       .  S
O480       Zr499   2.386       .  S
Zr481       O506   2.441   1_554  S
Zr481       O500   2.430   1_554  S
Zr481       O508   2.415   1_554  S
Zr481       O496   2.434   1_554  S
Zr481       O487   2.392       .  S
Zr481       O488   2.398       .  S
Zr481       O489   2.378       .  S
Zr481       O490   2.385       .  S
Zr482       O501   2.434       .  S
Zr482       O494   2.431       .  S
Zr482       O495   2.416       .  S
Zr482       O488   2.407       .  S
Zr482       O489   2.390       .  S
Zr483       O485   2.435       .  S
Zr483       O507   2.439       .  S
Zr483       O509   2.423       .  S
Zr483       O487   2.387       .  S
Zr483       O490   2.388       .  S
Zr484       O510   2.441       .  S
Zr484       O511   2.438       .  S
Zr484       O486   2.435       .  S
Zr484       O487   2.376       .  S
Zr484       O488   2.375       .  S
O485        H522   0.990       .  S
O486        H517   0.990       .  S
O486        H531   0.989       .  S
O488        H514   0.965       .  S
O489       Zr499   2.374       .  S
O490       Zr499   2.377       .  S
O490        H515   0.966       .  S
C491       C1096   1.443       .  S
C492       C1387   1.480       .  S
C493       C1483   1.498       .  S
O494        H530   0.989       .  S
O495        C497   1.283   1_554  A
O496        C497   1.282       .  A
C497       C1067   1.466       .  S
O498       Zr499   2.437       .  S
O498        H527   0.990       .  S
Zr499       O502   2.435       .  S
Zr499       O503   2.441       .  S
Zr499       O504   2.407       .  S
O500        C505   1.284   1_556  A
O501        H518   0.990       .  S
O501        H533   0.990       .  S
O502        H519   0.990       .  S
O503        H523   0.989       .  S
O503        H532   0.990       .  S
O504        C505   1.278       .  A
C505       C1595   1.478   1_554  S
O506        H525   0.990       .  S
O506        H529   0.990       .  S
O507        H521   0.990       .  S
O507        H528   0.990       .  S
O508        C512   1.281       .  A
O509        C512   1.285   1_554  A
O510        H520   0.990       .  S
O511        H524   0.990   1_554  S
C512       C1080   1.472       .  S
Zr535       O536   2.441       .  S
Zr535       O537   2.446       .  S
Zr535       O538   2.440       .  S
Zr535       O541   2.438       .  S
Zr535       O543   2.377       .  S
Zr535       O544   2.383       .  S
Zr535       O545   2.411       .  S
Zr535       O546   2.411       .  S
O536        H592   0.990       .  S
O536        H600   0.990       .  S
O537        C557   1.287       .  A
O538        C559   1.284       .  A
O539       Zr549   2.410       .  S
O539        C558   1.282       .  A
O540       Zr548   2.404       .  S
O540        C559   1.279       .  A
O541        C558   1.283       .  A
O542       Zr550   2.403       .  S
O542        C557   1.274       .  A
O543       Zr548   2.396       .  S
O543       Zr550   2.386       .  S
O544       Zr549   2.393       .  S
O544       Zr550   2.375       .  S
O544        H579   0.966       .  S
O545       Zr548   2.401       .  S
O545       Zr565   2.372       .  S
O545        H582   0.963       .  S
O546       Zr549   2.393       .  S
O546       Zr565   2.391       .  S
Zr547       O572   2.442       .  S
Zr547       O566   2.416       .  S
Zr547       O574   2.427       .  S
Zr547       O562   2.453       .  S
Zr547       O553   2.401       .  S
Zr547       O554   2.403       .  S
Zr547       O555   2.380       .  S
Zr547       O556   2.391       .  S
Zr548       O567   2.438       .  S
Zr548       O560   2.433       .  S
Zr548       O561   2.422       .  S
Zr548       O554   2.394       .  S
Zr548       O555   2.386       .  S
Zr549       O551   2.434       .  S
Zr549       O573   2.435       .  S
Zr549       O575   2.421       .  S
Zr549       O553   2.391       .  S
Zr549       O556   2.398       .  S
Zr550       O576   2.435       .  S
Zr550       O577   2.434       .  S
Zr550       O552   2.436       .  S
Zr550       O553   2.389       .  S
Zr550       O554   2.382       .  S
O551        H588   0.990       .  S
O552        H583   0.990       .  S
O552        H597   0.990       .  S
O554        H580   0.966       .  S
O555       Zr565   2.387       .  S
O556       Zr565   2.379       .  S
O556        H581   0.966       .  S
C557       C1627   1.501       .  S
C558       C1032   1.473       .  S
C559       C1016   1.457       .  S
O560        H596   0.990       .  S
O561        C563   1.282       .  A
O562        C563   1.287       .  A
C563       C1403   1.485       .  S
O564       Zr565   2.435       .  S
O564        H593   0.990       .  S
Zr565       O568   2.440       .  S
Zr565       O569   2.436       .  S
Zr565       O570   2.389       .  S
O566        C571   1.280       .  A
O567        H584   0.990       .  S
O567        H599   0.990       .  S
O568        H585   0.990       .  S
O569        H589   0.990       .  S
O569        H598   0.990       .  S
O570        C571   1.273       .  A
C571       C1048   1.459       .  S
O572        H591   0.990       .  S
O572        H595   0.991       .  S
O573        H587   0.988       .  S
O573        H594   0.990       .  S
O574        C578   1.281       .  A
O575        C578   1.280       .  A
O576        H586   0.989       .  S
O577        H590   0.990       .  S
C578       C1435   1.476       .  S
Zr601       O602   2.443       .  S
Zr601       O603   2.431       .  S
Zr601       O604   2.454       .  S
Zr601       O607   2.429       .  S
Zr601       O609   2.377       .  S
Zr601       O610   2.390       .  S
Zr601       O611   2.403       .  S
Zr601       O612   2.409       .  S
O602        H658   0.990       .  S
O602        H666   0.990       .  S
O603        C623   1.282       .  A
O604        C625   1.285       .  A
O605       Zr615   2.384       .  S
O605        C624   1.275       .  A
O606       Zr614   2.437       .  S
O606        C625   1.284       .  A
O607        C624   1.282       .  A
O608       Zr616   2.397       .  S
O608        C623   1.277       .  A
O609       Zr614   2.394       .  S
O609       Zr616   2.385       .  S
O610       Zr615   2.394       .  S
O610       Zr616   2.377       .  S
O610        H645   0.966       .  S
O611       Zr614   2.393       .  S
O611       Zr631   2.384       .  S
O611        H648   0.963       .  S
O612       Zr615   2.389       .  S
O612       Zr631   2.393       .  S
Zr613       O638   2.443   1_554  S
Zr613       O632   2.438       .  S
Zr613       O640   2.423   1_554  S
Zr613       O628   2.426   1_554  S
Zr613       O619   2.395       .  S
Zr613       O620   2.407       .  S
Zr613       O621   2.381       .  S
Zr613       O622   2.381       .  S
Zr614       O633   2.434       .  S
Zr614       O626   2.435       .  S
Zr614       O627   2.420       .  S
Zr614       O620   2.402       .  S
Zr614       O621   2.399       .  S
Zr615       O617   2.438       .  S
Zr615       O639   2.441       .  S
Zr615       O641   2.403       .  S
Zr615       O619   2.378       .  S
Zr615       O622   2.382       .  S
Zr616       O642   2.436       .  S
Zr616       O643   2.435       .  S
Zr616       O618   2.434       .  S
Zr616       O619   2.382       .  S
Zr616       O620   2.374       .  S
O617        H654   0.990       .  S
O618        H649   0.990       .  S
O618        H663   0.990       .  S
O620        H646   0.964       .  S
O621       Zr631   2.381       .  S
O622       Zr631   2.376       .  S
O622        H647   0.966       .  S
C623       C1000   1.469       .  S
C624       C1451   1.459       .  S
C625       C1544   1.477       .  S
O626        H662   0.990       .  S
O627        C629   1.282       .  A
O628        C629   1.282   1_556  A
C629        C968   1.460   1_554  S
O630       Zr631   2.439       .  S
O630        H659   0.990       .  S
Zr631       O634   2.433       .  S
Zr631       O635   2.439       .  S
Zr631       O636   2.421       .  S
O632        C637   1.282       .  A
O633        H650   0.990       .  S
O633        H665   0.990       .  S
O634        H651   0.990       .  S
O635        H655   0.990       .  S
O635        H664   0.990       .  S
O636        C637   1.284       .  A
C637       C1560   1.500   1_554  S
O638        H657   0.990       .  S
O638        H661   0.990       .  S
O639        H653   0.990       .  S
O639        H660   0.990       .  S
O640        C644   1.280   1_556  A
O641        C644   1.280       .  A
O642        H652   0.990       .  S
O643        H656   0.990       .  S
C644        C987   1.462   1_554  S
Zr667       O668   2.444       .  S
Zr667       O669   2.445       .  S
Zr667       O670   2.436       .  S
Zr667       O673   2.430       .  S
Zr667       O675   2.380       .  S
Zr667       O676   2.386       .  S
Zr667       O677   2.411       .  S
Zr667       O678   2.399       .  S
O668        H724   0.990       .  S
O668        H732   0.991       .  S
O669        C689   1.282       .  A
O670        C691   1.283       .  A
O671       Zr681   2.420       .  S
O671        C690   1.283       .  A
O672       Zr680   2.420       .  S
O672        C691   1.282       .  A
O673        C690   1.282       .  A
O674       Zr682   2.415       .  S
O674        C689   1.280       .  A
O675       Zr680   2.400       .  S
O675       Zr682   2.380       .  S
O676       Zr681   2.397       .  S
O676       Zr682   2.378       .  S
O676        H711   0.966       .  S
O677       Zr680   2.403       .  S
O677       Zr697   2.381       .  S
O677        H714   0.964       .  S
O678       Zr681   2.383       .  S
O678       Zr697   2.378       .  S
Zr679       O704   2.439       .  S
Zr679       O698   2.439       .  S
Zr679       O706   2.430       .  S
Zr679       O694   2.446       .  S
Zr679       O685   2.404       .  S
Zr679       O686   2.415       .  S
Zr679       O687   2.374       .  S
Zr679       O688   2.382       .  S
Zr680       O699   2.433       .  S
Zr680       O692   2.439       .  S
Zr680       O693   2.416       .  S
Zr680       O686   2.405       .  S
Zr680       O687   2.391       .  S
Zr681       O683   2.437       .  S
Zr681       O705   2.436       .  S
Zr681       O707   2.409       .  S
Zr681       O685   2.389       .  S
Zr681       O688   2.388       .  S
Zr682       O708   2.435       .  S
Zr682       O709   2.434       .  S
Zr682       O684   2.439       .  S
Zr682       O685   2.398       .  S
Zr682       O686   2.384       .  S
O683        H720   0.990       .  S
O684        H715   0.990       .  S
O684        H729   0.990       .  S
O686        H712   0.964       .  S
O687       Zr697   2.382       .  S
O688       Zr697   2.372       .  S
O688        H713   0.966       .  S
C689       C1643   1.507       .  S
C690        C923   1.467       .  S
C691        C952   1.475       .  S
O692        H728   0.990       .  S
O693        C695   1.280       .  A
O694        C695   1.287       .  A
C695       C1467   1.472       .  S
O696       Zr697   2.436       .  S
O696        H725   0.990       .  S
Zr697       O700   2.436       .  S
Zr697       O701   2.439       .  S
Zr697       O702   2.396       .  S
O698        C703   1.284       .  A
O699        H716   0.989       .  S
O699        H731   0.989       .  S
O700        H717   0.990       .  S
O701        H721   0.990       .  S
O701        H730   0.990       .  S
O702        C703   1.276       .  A
C703        C939   1.470       .  S
O704        H723   0.990       .  S
O704        H727   0.990       .  S
O705        H719   0.990       .  S
O705        H726   0.990       .  S
O706        C710   1.282       .  A
O707        C710   1.279       .  A
O708        H718   0.990       .  S
O709        H722   0.990       .  S
C710       C1499   1.463       .  S
O733       Zr745   2.409       .  S
O733        C735   1.282       .  A
O734       Zr771   2.445       .  S
O734        C735   1.290       .  A
C735       C1003   1.476       .  S
O736       Zr748   2.411       .  S
O736        C738   1.283       .  A
O737       Zr772   2.398   1_445  S
O737        C738   1.280       .  A
C738       C1115   1.454       .  S
O739       Zr748   2.420       .  S
O739        C741   1.284       .  A
O740       Zr771   2.404   1_455  S
O740        C741   1.282       .  A
C741       C1291   1.461       .  S
O742       Zr745   2.426       .  S
O742        C744   1.286       .  A
O743       Zr772   2.428   1_545  S
O743        C744   1.286       .  A
C744        C936   1.470       .  S
Zr745       O746   2.435       .  S
Zr745       O747   2.437       .  S
Zr745       O751   2.369       .  S
Zr745       O752   2.364       .  S
Zr745       O775   2.358   1_545  S
Zr745       O777   2.376   1_545  S
O746        H789   0.990       .  S
O747        H788   0.990       .  S
O747        H792   0.990       .  S
Zr748       O749   2.436       .  S
Zr748       O750   2.433       .  S
Zr748       O752   2.364   1_455  S
Zr748       O751   2.359   1_455  S
Zr748       O776   2.362       .  S
Zr748       O778   2.371   1_545  S
O749        H790   0.990       .  S
O749        H793   0.990       .  S
O750        H783   0.990       .  S
O751       Zr771   2.374       .  S
O752       Zr772   2.383   1_545  S
O752        H779   0.965       .  S
O753       Zr765   2.421       .  S
O753        C755   1.283       .  A
O754       Zr772   2.398       .  S
O754        C755   1.283       .  A
C755       C1051   1.462       .  S
O756       Zr768   2.406       .  S
O756        C758   1.283       .  A
O757       Zr771   2.448   1_465  S
O757        C758   1.289       .  A
C758       C1243   1.489       .  S
O759       Zr768   2.426       .  S
O759        C761   1.286       .  A
O760       Zr772   2.432   1_455  S
O760        C761   1.286       .  A
C761       C1179   1.479       .  S
O762       Zr765   2.421       .  S
O762        C764   1.283       .  A
O763       Zr771   2.393   1_565  S
O763        C764   1.280       .  A
C764       C1099   1.444       .  S
Zr765       O766   2.436       .  S
Zr765       O767   2.435       .  S
Zr765       O773   2.369       .  S
Zr765       O774   2.357       .  S
Zr765       O777   2.366       .  S
Zr765       O775   2.361       .  S
O766        H786   0.990       .  S
O766        H791   0.990       .  S
O767        H787   0.990       .  S
Zr768       O769   2.436       .  S
Zr768       O770   2.436       .  S
Zr768       O774   2.362   1_455  S
Zr768       O773   2.368   1_455  S
Zr768       O778   2.357       .  S
Zr768       O776   2.368   1_565  S
O769        H785   0.990       .  S
O770        H784   0.989       .  S
O770        H794   0.990       .  S
Zr771       O774   2.377   1_545  S
Zr771       O776   2.378   1_655  S
Zr771       O777   2.388   1_545  S
Zr772       O773   2.383       .  S
Zr772       O775   2.371       .  S
Zr772       O778   2.377   1_655  S
O773        H781   0.966       .  S
O776        H780   0.966       .  S
O777        H782   0.967       .  S
O795       Zr807   2.398       .  S
O795        C797   1.281       .  A
O796       Zr833   2.431       .  S
O796        C797   1.286       .  A
C797       C1224   1.471       .  S
O798       Zr810   2.415       .  S
O798        C800   1.284       .  A
O799       Zr834   2.414   1_545  S
O799        C800   1.284       .  A
C800        C971   1.459       .  S
O801       Zr810   2.424       .  S
O801        C803   1.285       .  A
O802       Zr833   2.392   1_545  S
O802        C803   1.280       .  A
C803       C1275   1.453       .  S
O804       Zr807   2.407       .  S
O804        C806   1.281       .  A
O805       Zr834   2.427       .  S
O805        C806   1.286       .  A
C806       C1083   1.464       .  S
Zr807       O808   2.441       .  S
Zr807       O809   2.434       .  S
Zr807       O813   2.362       .  S
Zr807       O814   2.367       .  S
Zr807       O837   2.363       .  S
Zr807       O839   2.369       .  S
O808        H851   0.990       .  S
O809        H850   0.990       .  S
O809        H854   0.989       .  S
Zr810       O811   2.436       .  S
Zr810       O812   2.433       .  S
Zr810       O814   2.354   1_545  S
Zr810       O813   2.359   1_545  S
Zr810       O838   2.359       .  S
Zr810       O840   2.364       .  S
O811        H852   0.990       .  S
O811        H855   0.989   1_545  S
O812        H845   0.990       .  S
O813       Zr833   2.385       .  S
O814       Zr834   2.394       .  S
O814        H841   0.965       .  S
O815       Zr827   2.420       .  S
O815        C817   1.284       .  A
O816       Zr834   2.418       .  S
O816        C817   1.284       .  A
C817       C1019   1.463       .  S
O818       Zr830   2.417       .  S
O818        C820   1.283       .  A
O819       Zr833   2.427   1_545  S
O819        C820   1.286       .  A
C820       C1131   1.467       .  S
O821       Zr830   2.420       .  S
O821        C823   1.286       .  A
O822       Zr834   2.422   1_545  S
O822        C823   1.284       .  A
C823        C920   1.470       .  S
O824       Zr827   2.417       .  S
O824        C826   1.283       .  A
O825       Zr833   2.404       .  S
O825        C826   1.283       .  A
C826       C1195   1.463       .  S
Zr827       O828   2.437       .  S
Zr827       O829   2.432       .  S
Zr827       O835   2.359   1_565  S
Zr827       O836   2.367   1_565  S
Zr827       O839   2.365       .  S
Zr827       O837   2.366       .  S
O828        H848   0.989       .  S
O828        H853   0.990       .  S
O829        H849   0.990       .  S
Zr830       O831   2.433       .  S
Zr830       O832   2.434       .  S
Zr830       O836   2.367       .  S
Zr830       O835   2.380       .  S
Zr830       O840   2.349       .  S
Zr830       O838   2.365       .  S
O831        H847   0.990       .  S
O832        H846   0.989       .  S
O832        H856   0.989       .  S
Zr833       O836   2.382   1_565  S
Zr833       O838   2.379   1_565  S
Zr833       O839   2.380       .  S
Zr834       O835   2.392   1_565  S
Zr834       O837   2.377       .  S
Zr834       O840   2.380   1_565  S
O835        H843   0.966       .  S
O838        H842   0.965       .  S
O839        H844   0.966       .  S
O857       Zr869   2.432       .  S
O857        C859   1.285       .  A
O858       Zr895   2.461       .  S
O858        C859   1.294       .  A
C859       C1259   1.493       .  S
O860       Zr872   2.405       .  S
O860        C862   1.282       .  A
O861       Zr896   2.428   1_655  S
O861        C862   1.286       .  A
C862       C1064   1.466       .  S
O863       Zr872   2.414       .  S
O863        C865   1.283       .  A
O864       Zr895   2.456   1_655  S
O864        C865   1.292       .  A
C865        C984   1.476       .  S
O866       Zr869   2.437       .  S
O866        C868   1.281       .  A
O867       Zr896   2.388       .  S
O867        C868   1.275       .  A
C868       C1211   1.455       .  S
Zr869       O870   2.437       .  S
Zr869       O871   2.439       .  S
Zr869       O875   2.373       .  S
Zr869       O876   2.373       .  S
Zr869       O899   2.367       .  S
Zr869       O901   2.377       .  S
O870        H913   0.990       .  S
O871        H912   0.990       .  S
O871        H916   0.990       .  S
Zr872       O873   2.433       .  S
Zr872       O874   2.433       .  S
Zr872       O876   2.358   1_655  S
Zr872       O875   2.365   1_655  S
Zr872       O900   2.359       .  S
Zr872       O902   2.368       .  S
O873        H914   0.990       .  S
O873        H917   0.990       .  S
O874        H907   0.990       .  S
O875       Zr895   2.385       .  S
O876       Zr896   2.408       .  S
O876        H903   0.967       .  S
O877       Zr889   2.417       .  S
O877        C879   1.284       .  A
O878       Zr896   2.429       .  S
O878        C879   1.287       .  A
C879       C1163   1.469       .  S
O880       Zr892   2.394       .  S
O880        C882   1.280       .  A
O881       Zr895   2.435   1_655  S
O881        C882   1.288       .  A
C882        C955   1.454       .  S
O883       Zr892   2.436       .  S
O883        C885   1.286       .  A
O884       Zr896   2.426   1_655  S
O884        C885   1.286       .  A
C885       C1035   1.479       .  S
O886       Zr889   2.426       .  S
O886        C888   1.284       .  A
O887       Zr895   2.420       .  S
O887        C888   1.285       .  A
C888       C1147   1.462       .  S
Zr889       O890   2.437       .  S
Zr889       O891   2.432       .  S
Zr889       O897   2.371   1_455  S
Zr889       O898   2.354   1_455  S
Zr889       O901   2.366       .  S
Zr889       O899   2.360       .  S
O890        H910   0.990       .  S
O890        H915   0.990       .  S
O891        H911   0.990       .  S
Zr892       O893   2.438       .  S
Zr892       O894   2.434       .  S
Zr892       O898   2.368       .  S
Zr892       O897   2.355       .  S
Zr892       O902   2.354       .  S
Zr892       O900   2.372       .  S
O893        H909   0.990       .  S
O894        H908   0.990       .  S
O894        H918   0.990       .  S
Zr895       O898   2.395   1_455  S
Zr895       O900   2.389   1_455  S
Zr895       O901   2.389       .  S
Zr896       O897   2.386   1_455  S
Zr896       O899   2.390       .  S
Zr896       O902   2.370   1_455  S
O897        H905   0.967       .  S
O900        H904   0.965       .  S
O901        H906   0.965       .  S
C919        C920   1.402       .  A
C919        C924   1.396       .  A
C919        H926   1.084       .  S
C920        C921   1.417       .  A
C921        C922   1.406       .  A
C921        C928   1.517       .  S
C922        C923   1.403       .  A
C922        H927   1.083       .  S
C923        C924   1.412       .  A
C924        C925   1.516       .  S
C925        F929   1.385       .  S
C925        F930   1.384       .  S
C925        F931   1.379       .  S
C928        F932   1.383       .  S
C928        F933   1.382       .  S
C928        F934   1.385       .  S
C935        C936   1.401       .  A
C935        C940   1.401       .  A
C935        H942   1.084       .  S
C936        C937   1.414       .  A
C937        C938   1.405       .  A
C937        C944   1.515       .  S
C938        C939   1.405       .  A
C938        H943   1.083       .  S
C939        C940   1.414       .  A
C940        C941   1.518       .  S
C941        F945   1.385       .  S
C941        F946   1.384       .  S
C941        F947   1.381       .  S
C944        F948   1.383       .  S
C944        F949   1.380       .  S
C944        F950   1.385       .  S
C951        C952   1.406       .  A
C951        C956   1.399       .  A
C951        H958   1.085       .  S
C952        C953   1.423       .  A
C953        C954   1.401       .  A
C953        C960   1.517       .  S
C954        C955   1.394       .  A
C954        H959   1.084       .  S
C955        C956   1.412       .  A
C956        C957   1.518       .  S
C957        F961   1.383       .  S
C957        F962   1.382       .  S
C957        F963   1.382       .  S
C960        F964   1.381       .  S
C960        F965   1.382       .  S
C960        F966   1.384       .  S
C967        C968   1.397       .  A
C967        C972   1.395       .  A
C967        H974   1.084       .  S
C968        C969   1.416       .  A
C969        C970   1.402       .  A
C969        C976   1.515       .  S
C970        C971   1.399       .  A
C970        H975   1.082       .  S
C971        C972   1.417       .  A
C972        C973   1.519       .  S
C973        F977   1.383       .  S
C973        F978   1.383       .  S
C973        F979   1.383       .  S
C976        F980   1.381   1_556  S
C976        F981   1.383       .  S
C976        F982   1.385       .  S
C983        C984   1.407       .  A
C983        C988   1.404       .  A
C983        H990   1.083       .  S
C984        C985   1.415       .  A
C985        C986   1.396       .  A
C985        C992   1.503       .  S
C986        C987   1.396       .  A
C986        H991   1.084   1_556  S
C987        C988   1.411       .  A
C988        C989   1.517       .  S
C989        F993   1.385       .  S
C989        F994   1.384       .  S
C989        F995   1.381       .  S
C992        F996   1.382       .  S
C992        F997   1.378       .  S
C992        F998   1.387   1_556  S
C999       C1000   1.404       .  A
C999       C1004   1.404       .  A
C999       H1006   1.084       .  S
C1000      C1001   1.414       .  A
C1001      C1002   1.405       .  A
C1001      C1008   1.523       .  S
C1002      C1003   1.407       .  A
C1002      H1007   1.083       .  S
C1003      C1004   1.414       .  A
C1004      C1005   1.517       .  S
C1005      F1009   1.384       .  S
C1005      F1010   1.382       .  S
C1005      F1011   1.382       .  S
C1008      F1012   1.383       .  S
C1008      F1013   1.384       .  S
C1008      F1014   1.384       .  S
C1015      C1016   1.394       .  A
C1015      C1020   1.395       .  A
C1015      H1022   1.085       .  S
C1016      C1017   1.415       .  A
C1017      C1018   1.404       .  A
C1017      C1024   1.516       .  S
C1018      C1019   1.401       .  A
C1018      H1023   1.083       .  S
C1019      C1020   1.419       .  A
C1020      C1021   1.519       .  S
C1021      F1025   1.384       .  S
C1021      F1026   1.383       .  S
C1021      F1027   1.381       .  S
C1024      F1028   1.380       .  S
C1024      F1029   1.384       .  S
C1024      F1030   1.384       .  S
C1031      C1032   1.402       .  A
C1031      C1036   1.402       .  A
C1031      H1038   1.084       .  S
C1032      C1033   1.416       .  A
C1033      C1034   1.409       .  A
C1033      C1040   1.520       .  S
C1034      C1035   1.408       .  A
C1034      H1039   1.083       .  S
C1035      C1036   1.416       .  A
C1036      C1037   1.519       .  S
C1037      F1041   1.385       .  S
C1037      F1042   1.383       .  S
C1037      F1043   1.382       .  S
C1040      F1044   1.384       .  S
C1040      F1045   1.382       .  S
C1040      F1046   1.385       .  S
C1047      C1048   1.399       .  A
C1047      C1052   1.395       .  A
C1047      H1054   1.084       .  S
C1048      C1049   1.415       .  A
C1049      C1050   1.399       .  A
C1049      C1056   1.519       .  S
C1050      C1051   1.402       .  A
C1050      H1055   1.083       .  S
C1051      C1052   1.417       .  A
C1052      C1053   1.519       .  S
C1053      F1057   1.385       .  S
C1053      F1058   1.381       .  S
C1053      F1059   1.382       .  S
C1056      F1060   1.383       .  S
C1056      F1061   1.382       .  S
C1056      F1062   1.385       .  S
C1063      C1064   1.405       .  A
C1063      C1068   1.401       .  A
C1063      H1070   1.084       .  S
C1064      C1065   1.411       .  A
C1065      C1066   1.403       .  A
C1065      C1072   1.517       .  S
C1066      C1067   1.405       .  A
C1066      H1071   1.084       .  S
C1067      C1068   1.413       .  A
C1068      C1069   1.520       .  S
C1069      F1073   1.386       .  S
C1069      F1074   1.382       .  S
C1069      F1075   1.383       .  S
C1072      F1076   1.383       .  S
C1072      F1077   1.385       .  S
C1072      F1078   1.382       .  S
C1079      C1080   1.405       .  A
C1079      C1084   1.402       .  A
C1079      H1086   1.083       .  S
C1080      C1081   1.418       .  A
C1081      C1082   1.401       .  A
C1081      C1088   1.520       .  S
C1082      C1083   1.401       .  A
C1082      H1087   1.084       .  S
C1083      C1084   1.413       .  A
C1084      C1085   1.518       .  S
C1085      F1089   1.385       .  S
C1085      F1090   1.383       .  S
C1085      F1091   1.382       .  S
C1088      F1092   1.384       .  S
C1088      F1093   1.382       .  S
C1088      F1094   1.385       .  S
C1095      C1096   1.396       .  A
C1095      C1100   1.397       .  A
C1095      H1102   1.085       .  S
C1096      C1097   1.409       .  A
C1097      C1098   1.392       .  A
C1097      C1104   1.517       .  S
C1098      C1099   1.396       .  A
C1098      H1103   1.082       .  S
C1099      C1100   1.416       .  A
C1100      C1101   1.518       .  S
C1101      F1105   1.384       .  S
C1101      F1106   1.384       .  S
C1101      F1107   1.379       .  S
C1104      F1108   1.382       .  S
C1104      F1109   1.383       .  S
C1104      F1110   1.385       .  S
C1111      C1112   1.404       .  A
C1111      C1116   1.396       .  A
C1111      H1118   1.083       .  S
C1112      C1113   1.414       .  A
C1113      C1114   1.394       .  A
C1113      C1120   1.521       .  S
C1114      C1115   1.401       .  A
C1114      H1119   1.084       .  S
C1115      C1116   1.413       .  A
C1116      C1117   1.520       .  S
C1117      F1121   1.385       .  S
C1117      F1122   1.383       .  S
C1117      F1123   1.382       .  S
C1120      F1124   1.384       .  S
C1120      F1125   1.380       .  S
C1120      F1126   1.383       .  S
C1127      C1128   1.395       .  A
C1127      C1132   1.396       .  A
C1127      H1134   1.085       .  S
C1128      C1129   1.414       .  A
C1129      C1130   1.402       .  A
C1129      C1136   1.517       .  S
C1130      C1131   1.402       .  A
C1130      H1135   1.084       .  S
C1131      C1132   1.420       .  A
C1132      C1133   1.517       .  S
C1133      F1137   1.384       .  S
C1133      F1138   1.383       .  S
C1133      F1139   1.382       .  S
C1136      F1140   1.379       .  S
C1136      F1141   1.384       .  S
C1136      F1142   1.384       .  S
C1143      C1144   1.405       .  A
C1143      C1148   1.402       .  A
C1143      H1150   1.083       .  S
C1144      C1145   1.424       .  A
C1145      C1146   1.404       .  A
C1145      C1152   1.517       .  S
C1146      C1147   1.397       .  A
C1146      H1151   1.084       .  S
C1147      C1148   1.411       .  A
C1148      C1149   1.515       .  S
C1149      F1153   1.384       .  S
C1149      F1154   1.381       .  S
C1149      F1155   1.383       .  S
C1152      F1156   1.384       .  S
C1152      F1157   1.382       .  S
C1152      F1158   1.382       .  S
C1159      C1160   1.395       .  A
C1159      C1164   1.398       .  A
C1159      H1166   1.085       .  S
C1160      C1161   1.420       .  A
C1161      C1162   1.408       .  A
C1161      C1168   1.521       .  S
C1162      C1163   1.403       .  A
C1162      H1167   1.083       .  S
C1163      C1164   1.420       .  A
C1164      C1165   1.521       .  S
C1165      F1169   1.383       .  S
C1165      F1170   1.384       .  S
C1165      F1171   1.381       .  S
C1168      F1172   1.380       .  S
C1168      F1173   1.384       .  S
C1168      F1174   1.385       .  S
C1175      C1176   1.405       .  A
C1175      C1180   1.406       .  A
C1175      H1182   1.083       .  S
C1176      C1177   1.415       .  A
C1177      C1178   1.404       .  A
C1177      C1184   1.521       .  S
C1178      C1179   1.407       .  A
C1178      H1183   1.083       .  S
C1179      C1180   1.418       .  A
C1180      C1181   1.521       .  S
C1181      F1185   1.386       .  S
C1181      F1186   1.383       .  S
C1181      F1187   1.383       .  S
C1184      F1188   1.384       .  S
C1184      F1189   1.382       .  S
C1184      F1190   1.385       .  S
C1191      C1192   1.405       .  A
C1191      C1196   1.391       .  A
C1191      H1198   1.079       .  S
C1192      C1193   1.415       .  A
C1193      C1194   1.404       .  A
C1193      C1200   1.514       .  S
C1194      C1195   1.402       .  A
C1194      H1199   1.083       .  S
C1195      C1196   1.412       .  A
C1196      C1197   1.518       .  S
C1197      F1201   1.385       .  S
C1197      F1202   1.383       .  S
C1197      F1203   1.383       .  S
C1200      F1204   1.383       .  S
C1200      F1205   1.382       .  S
C1200      F1206   1.384       .  S
C1207      C1208   1.407       .  A
C1207      C1212   1.402       .  A
C1207      H1214   1.083       .  S
C1208      C1209   1.414       .  A
C1209      C1210   1.392       .  A
C1209      C1216   1.519   1_556  S
C1210      C1211   1.397       .  A
C1210      H1215   1.081       .  S
C1211      C1212   1.410       .  A
C1212      C1213   1.518       .  S
C1213      F1217   1.385       .  S
C1213      F1218   1.382       .  S
C1213      F1219   1.384       .  S
C1216      F1220   1.381       .  S
C1216      F1221   1.383       .  S
C1216      F1222   1.386       .  S
C1223      C1224   1.410       .  A
C1223      C1228   1.398       .  A
C1223      H1230   1.084       .  S
C1224      C1225   1.416       .  A
C1225      C1226   1.401       .  A
C1225      C1232   1.517       .  S
C1226      C1227   1.399       .  A
C1226      H1231   1.084       .  S
C1227      C1228   1.407       .  A
C1228      C1229   1.520       .  S
C1229      F1233   1.384       .  S
C1229      F1234   1.381       .  S
C1229      F1235   1.384       .  S
C1232      F1236   1.383       .  S
C1232      F1237   1.377       .  S
C1232      F1238   1.384       .  S
C1239      C1240   1.406       .  A
C1239      C1244   1.406       .  A
C1239      H1246   1.083       .  S
C1240      C1241   1.415       .  A
C1241      C1242   1.402       .  A
C1241      C1248   1.524       .  S
C1242      C1243   1.412       .  A
C1242      H1247   1.083       .  S
C1243      C1244   1.419       .  A
C1244      C1245   1.519       .  S
C1245      F1249   1.386       .  S
C1245      F1250   1.382       .  S
C1245      F1251   1.383       .  S
C1248      F1252   1.382       .  S
C1248      F1253   1.384       .  S
C1248      F1254   1.384       .  S
C1255      C1256   1.395       .  A
C1255      C1260   1.399       .  A
C1255      H1262   1.084       .  S
C1256      C1257   1.410       .  A
C1257      C1258   1.410       .  A
C1257      C1264   1.517       .  S
C1258      C1259   1.412       .  A
C1258      H1263   1.083       .  S
C1259      C1260   1.417       .  A
C1260      C1261   1.504       .  S
C1261      F1265   1.383       .  S
C1261      F1266   1.378       .  S
C1261      F1267   1.386       .  S
C1264      F1268   1.383       .  S
C1264      F1269   1.383       .  S
C1264      F1270   1.384       .  S
C1271      C1272   1.417   1_554  A
C1271      C1276   1.395   1_554  A
C1271      H1278   1.083       .  S
C1272      C1273   1.428       .  A
C1273      C1274   1.404       .  A
C1273      C1280   1.515       .  S
C1274      C1275   1.396       .  A
C1274      H1279   1.084       .  S
C1275      C1276   1.405       .  A
C1276      C1277   1.522   1_556  S
C1277      F1281   1.383       .  S
C1277      F1282   1.382       .  S
C1277      F1283   1.382   1_554  S
C1280      F1284   1.382       .  S
C1280      F1285   1.382       .  S
C1280      F1286   1.386       .  S
C1287      C1288   1.406       .  A
C1287      C1292   1.404       .  A
C1287      H1294   1.083       .  S
C1288      C1289   1.421       .  A
C1289      C1290   1.399       .  A
C1289      C1296   1.523       .  S
C1290      C1291   1.399       .  A
C1290      H1295   1.084       .  S
C1291      C1292   1.411       .  A
C1292      C1293   1.519       .  S
C1293      F1297   1.384       .  S
C1293      F1298   1.384       .  S
C1293      F1299   1.383       .  S
C1296      F1300   1.382       .  S
C1296      F1301   1.383       .  S
C1296      F1302   1.386       .  S
C1303      C1304   1.403       .  A
C1303      C1308   1.405       .  A
C1303      H1310   1.084       .  S
C1304      C1305   1.416       .  A
C1305      C1306   1.403       .  A
C1305      C1312   1.517       .  S
C1306      C1307   1.402       .  A
C1306      H1311   1.083       .  S
C1307      C1308   1.414       .  A
C1308      C1309   1.517       .  S
C1309      F1313   1.386       .  S
C1309      F1314   1.382       .  S
C1309      F1315   1.382       .  S
C1312      F1316   1.376       .  S
C1312      F1317   1.383       .  S
C1312      F1318   1.385       .  S
C1319      C1320   1.408       .  A
C1319      C1324   1.408       .  A
C1319      H1326   1.083       .  S
C1320      C1321   1.418       .  A
C1321      C1322   1.403       .  A
C1321      C1328   1.519       .  S
C1322      C1323   1.402       .  A
C1322      H1327   1.084       .  S
C1323      C1324   1.412       .  A
C1324      C1325   1.518       .  S
C1325      F1329   1.385       .  S
C1325      F1330   1.382       .  S
C1325      F1331   1.383       .  S
C1328      F1332   1.380       .  S
C1328      F1333   1.384       .  S
C1328      F1334   1.384       .  S
C1335      C1336   1.393       .  A
C1335      C1340   1.396       .  A
C1335      H1342   1.084       .  S
C1336      C1337   1.413       .  A
C1337      C1338   1.401       .  A
C1337      C1344   1.521       .  S
C1338      C1339   1.406       .  A
C1338      H1343   1.083       .  S
C1339      C1340   1.420       .  A
C1340      C1341   1.516       .  S
C1341      F1345   1.385       .  S
C1341      F1346   1.383       .  S
C1341      F1347   1.381       .  S
C1344      F1348   1.381       .  S
C1344      F1349   1.383       .  S
C1344      F1350   1.385       .  S
C1351      C1352   1.399       .  A
C1351      C1356   1.399       .  A
C1351      H1358   1.083       .  S
C1352      C1353   1.410       .  A
C1353      C1354   1.405       .  A
C1353      C1360   1.516       .  S
C1354      C1355   1.402       .  A
C1354      H1359   1.083       .  S
C1355      C1356   1.419       .  A
C1356      C1357   1.523       .  S
C1357      F1361   1.385       .  S
C1357      F1362   1.382       .  S
C1357      F1363   1.377       .  S
C1360      F1364   1.383       .  S
C1360      F1365   1.382       .  S
C1360      F1366   1.383       .  S
C1367      C1368   1.402       .  A
C1367      C1372   1.409       .  A
C1367      H1374   1.083       .  S
C1368      C1369   1.416       .  A
C1369      C1370   1.400       .  A
C1369      C1376   1.522       .  S
C1370      C1371   1.403       .  A
C1370      H1375   1.084       .  S
C1371      C1372   1.420       .  A
C1372      C1373   1.521       .  S
C1373      F1377   1.383       .  S
C1373      F1378   1.382       .  S
C1373      F1379   1.383       .  S
C1376      F1380   1.385       .  S
C1376      F1381   1.381       .  S
C1376      F1382   1.379       .  S
C1383      C1384   1.402       .  A
C1383      C1388   1.408       .  A
C1383      H1390   1.083       .  S
C1384      C1385   1.415       .  A
C1385      C1386   1.403       .  A
C1385      C1392   1.521       .  S
C1386      C1387   1.404       .  A
C1386      H1391   1.083       .  S
C1387      C1388   1.419       .  A
C1388      C1389   1.518       .  S
C1389      F1393   1.384       .  S
C1389      F1394   1.382       .  S
C1389      F1395   1.383       .  S
C1392      F1396   1.383       .  S
C1392      F1397   1.382       .  S
C1392      F1398   1.385       .  S
C1399      C1400   1.399       .  A
C1399      C1404   1.403       .  A
C1399      H1406   1.084       .  S
C1400      C1401   1.411       .  A
C1401      C1402   1.407       .  A
C1401      C1408   1.516       .  S
C1402      C1403   1.408       .  A
C1402      H1407   1.083       .  S
C1403      C1404   1.422       .  A
C1404      C1405   1.516       .  S
C1405      F1409   1.385       .  S
C1405      F1410   1.383       .  S
C1405      F1411   1.379       .  S
C1408      F1412   1.382       .  S
C1408      F1413   1.382       .  S
C1408      F1414   1.384       .  S
C1415      C1416   1.403       .  A
C1415      C1420   1.399       .  A
C1415      H1422   1.083       .  S
C1416      C1417   1.420       .  A
C1417      C1418   1.409       .  A
C1417      C1424   1.515       .  S
C1418      C1419   1.401       .  A
C1418      H1423   1.083       .  S
C1419      C1420   1.414       .  A
C1420      C1421   1.519       .  S
C1421      F1425   1.385       .  S
C1421      F1426   1.378       .  S
C1421      F1427   1.383       .  S
C1424      F1428   1.383       .  S
C1424      F1429   1.382       .  S
C1424      F1430   1.385       .  S
C1431      C1432   1.400       .  A
C1431      C1436   1.406       .  A
C1431      H1438   1.083       .  S
C1432      C1433   1.415       .  A
C1433      C1434   1.399       .  A
C1433      C1440   1.520       .  S
C1434      C1435   1.403       .  A
C1434      H1439   1.083       .  S
C1435      C1436   1.418       .  A
C1436      C1437   1.515       .  S
C1437      F1441   1.385       .  S
C1437      F1442   1.382       .  S
C1437      F1443   1.383       .  S
C1440      F1444   1.383       .  S
C1440      F1445   1.379       .  S
C1440      F1446   1.385       .  S
C1447      C1448   1.403       .  A
C1447      C1452   1.400       .  A
C1447      H1454   1.084       .  S
C1448      C1449   1.410       .  A
C1449      C1450   1.398       .  A
C1449      C1456   1.515       .  S
C1450      C1451   1.403       .  A
C1450      H1455   1.084       .  S
C1451      C1452   1.412       .  A
C1452      C1453   1.518       .  S
C1453      F1457   1.384       .  S
C1453      F1458   1.379       .  S
C1453      F1459   1.385       .  S
C1456      F1460   1.381       .  S
C1456      F1461   1.382       .  S
C1456      F1462   1.385       .  S
C1463      C1464   1.399       .  A
C1463      C1468   1.403       .  A
C1463      H1470   1.084       .  S
C1464      C1465   1.416       .  A
C1465      C1466   1.401       .  A
C1465      C1472   1.523       .  S
C1466      C1467   1.403       .  A
C1466      H1471   1.083       .  S
C1467      C1468   1.418       .  A
C1468      C1469   1.517       .  S
C1469      F1473   1.385       .  S
C1469      F1474   1.383       .  S
C1469      F1475   1.383       .  S
C1472      F1476   1.382       .  S
C1472      F1477   1.383       .  S
C1472      F1478   1.385       .  S
C1479      C1480   1.400       .  A
C1479      C1484   1.409       .  A
C1479      H1486   1.083       .  S
C1480      C1481   1.421       .  A
C1481      C1482   1.407       .  A
C1481      C1488   1.520       .  S
C1482      C1483   1.406       .  A
C1482      H1487   1.084       .  S
C1483      C1484   1.423       .  A
C1484      C1485   1.515       .  S
C1485      F1489   1.385       .  S
C1485      F1490   1.383       .  S
C1485      F1491   1.381       .  S
C1488      F1492   1.383       .  S
C1488      F1493   1.383       .  S
C1488      F1494   1.381       .  S
C1495      C1496   1.401       .  A
C1495      C1500   1.399       .  A
C1495      H1502   1.084       .  S
C1496      C1497   1.414       .  A
C1497      C1498   1.408       .  A
C1497      C1504   1.518       .  S
C1498      C1499   1.404       .  A
C1498      H1503   1.083       .  S
C1499      C1500   1.412       .  A
C1500      C1501   1.520       .  S
C1501      F1505   1.384       .  S
C1501      F1506   1.382       .  S
C1501      F1507   1.383       .  S
C1504      F1508   1.382       .  S
C1504      F1509   1.384       .  S
C1504      F1510   1.383       .  S
C1511      C1512   1.402       .  A
C1511      C1516   1.402       .  A
C1511      H1518   1.084       .  S
C1512      C1513   1.415       .  A
C1513      C1514   1.406       .  A
C1513      C1520   1.516       .  S
C1514      C1515   1.402       .  A
C1514      H1519   1.083       .  S
C1515      C1516   1.413       .  A
C1516      C1517   1.516       .  S
C1517      F1521   1.385       .  S
C1517      F1522   1.382       .  S
C1517      F1523   1.382       .  S
C1520      F1524   1.382       .  S
C1520      F1525   1.382       .  S
C1520      F1526   1.385       .  S
C1527      C1528   1.400       .  A
C1527      C1532   1.407       .  A
C1527      H1534   1.085       .  S
C1528      C1529   1.413       .  A
C1529      C1530   1.402       .  A
C1529      C1536   1.517       .  S
C1530      C1531   1.402       .  A
C1530      H1535   1.084       .  S
C1531      C1532   1.417       .  A
C1532      C1533   1.514       .  S
C1533      F1537   1.383       .  S
C1533      F1538   1.382       .  S
C1533      F1539   1.382       .  S
C1536      F1540   1.383       .  S
C1536      F1541   1.382       .  S
C1536      F1542   1.384       .  S
C1543      C1544   1.407       .  A
C1543      C1548   1.413       .  A
C1543      H1550   1.083       .  S
C1544      C1545   1.419       .  A
C1545      C1546   1.397       .  A
C1545      C1552   1.517       .  S
C1546      C1547   1.395       .  A
C1546      H1551   1.084       .  S
C1547      C1548   1.415       .  A
C1548      C1549   1.517       .  S
C1549      F1553   1.384       .  S
C1549      F1554   1.383       .  S
C1549      F1555   1.385       .  S
C1552      F1556   1.381       .  S
C1552      F1557   1.381       .  S
C1552      F1558   1.386       .  S
C1559      C1560   1.407   1_554  A
C1559      C1564   1.402   1_554  A
C1559      H1566   1.084       .  S
C1560      C1561   1.426       .  A
C1561      C1562   1.413       .  A
C1561      C1568   1.518       .  S
C1562      C1563   1.403       .  A
C1562      H1567   1.083       .  S
C1563      C1564   1.419       .  A
C1564      C1565   1.518   1_556  S
C1565      F1569   1.384       .  S
C1565      F1570   1.383       .  S
C1565      F1571   1.380   1_554  S
C1568      F1572   1.383       .  S
C1568      F1573   1.382       .  S
C1568      F1574   1.384       .  S
C1575      C1576   1.403       .  A
C1575      C1580   1.417       .  A
C1575      H1582   1.083       .  S
C1576      C1577   1.416       .  A
C1577      C1578   1.403   1_556  A
C1577      C1584   1.521   1_556  S
C1578      C1579   1.408   1_554  A
C1578      H1583   1.082       .  S
C1579      C1580   1.430       .  A
C1580      C1581   1.520       .  S
C1581      F1585   1.385       .  S
C1581      F1586   1.380       .  S
C1581      F1587   1.383       .  S
C1584      F1588   1.378   1_554  S
C1584      F1589   1.383       .  S
C1584      F1590   1.385       .  S
C1591      C1592   1.404       .  A
C1591      C1596   1.400       .  A
C1591      H1598   1.079       .  S
C1592      C1593   1.416       .  A
C1593      C1594   1.402       .  A
C1593      C1600   1.512       .  S
C1594      C1595   1.403       .  A
C1594      H1599   1.084       .  S
C1595      C1596   1.420       .  A
C1596      C1597   1.522   1_556  S
C1597      F1601   1.385       .  S
C1597      F1602   1.384       .  S
C1597      F1603   1.382       .  S
C1600      F1604   1.382       .  S
C1600      F1605   1.383       .  S
C1600      F1606   1.383       .  S
C1607      C1608   1.397       .  A
C1607      C1612   1.406   1_556  A
C1607      H1614   1.084       .  S
C1608      C1609   1.407       .  A
C1609      C1610   1.406       .  A
C1609      C1616   1.518       .  S
C1610      C1611   1.413       .  A
C1610      H1615   1.082       .  S
C1611      C1612   1.431   1_556  A
C1612      C1613   1.522       .  S
C1613      F1617   1.384       .  S
C1613      F1618   1.383       .  S
C1613      F1619   1.382       .  S
C1616      F1620   1.383       .  S
C1616      F1621   1.383       .  S
C1616      F1622   1.384       .  S
C1623      C1624   1.401       .  A
C1623      C1628   1.410       .  A
C1623      H1630   1.084       .  S
C1624      C1625   1.411       .  A
C1625      C1626   1.400       .  A
C1625      C1632   1.510       .  S
C1626      C1627   1.405       .  A
C1626      H1631   1.081       .  S
C1627      C1628   1.431       .  A
C1628      C1629   1.518       .  S
C1629      F1633   1.385       .  S
C1629      F1634   1.382       .  S
C1629      F1635   1.383       .  S
C1632      F1636   1.379       .  S
C1632      F1637   1.383       .  S
C1632      F1638   1.386       .  S
C1639      C1640   1.400       .  A
C1639      C1644   1.413       .  A
C1639      H1646   1.083       .  S
C1640      C1641   1.415       .  A
C1641      C1642   1.406       .  A
C1641      C1648   1.522       .  S
C1642      C1643   1.412       .  A
C1642      H1647   1.082       .  S
C1643      C1644   1.429       .  A
C1644      C1645   1.517       .  S
C1645      F1649   1.383       .  S
C1645      F1650   1.384       .  S
C1645      F1651   1.379       .  S
C1648      F1652   1.382       .  S
C1648      F1653   1.380       .  S
C1648      F1654   1.384       .  S
C1655      C1656   1.403       .  A
C1655      C1660   1.411       .  A
C1655      H1662   1.083       .  S
C1656      C1657   1.416       .  A
C1657      C1658   1.390       .  A
C1657      C1664   1.523       .  S
C1658      C1659   1.406       .  A
C1658      H1663   1.084       .  S
C1659      C1660   1.423       .  A
C1660      C1661   1.517       .  S
C1661      F1665   1.382       .  S
C1661      F1666   1.384       .  S
C1661      F1667   1.384       .  S
C1664      F1668   1.379       .  S
C1664      F1669   1.385       .  S
C1664      F1670   1.384       .  S
C1671      C1672   1.412       .  A
C1671      C1676   1.407       .  A
C1671      H1678   1.082       .  S
C1672      C1673   1.435       .  A
C1673      C1674   1.408       .  A
C1673      C1680   1.525       .  S
C1674      C1675   1.398       .  A
C1674      H1679   1.083       .  S
C1675      C1676   1.408       .  A
C1676      C1677   1.516       .  S
C1677      F1681   1.384       .  S
C1677      F1682   1.383       .  S
C1677      F1683   1.383       .  S
C1680      F1684   1.383       .  S
C1680      F1685   1.383       .  S
C1680      F1686   1.386       .  S
