geometry optimzed in LAMMPS
_audit_creation_date              2020-11-30 
_audit_creation_method            'lammps2cif' 
_symmetry_space_group_name_H-M    'P1' 
_symmetry_Int_Tables_number       1 
_symmetry_cell_setting            triclinic 
loop_ 
_symmetry_equiv_pos_as_xyz 
  x,y,z 
_cell_length_a                    50.54041396576957 
_cell_length_b                    51.25359576374256 
_cell_length_c                    51.509334734607194 
_cell_angle_alpha                 89.84356625079506 
_cell_angle_beta                  89.83304930343319 
_cell_angle_gamma                 89.30193181094994 
loop_ 
_atom_site_label 
_atom_site_type_symbol 
_atom_site_fract_x 
_atom_site_fract_y 
_atom_site_fract_z 
_atom_site_charge 
O1          O  0.49054362  0.52249778  0.56109525    -0.80660
O2          O  0.52124810  0.45081096  0.47026689    -0.65350
O3          O  0.51976776  0.50737028  0.51777471    -1.11960
C4          C  0.44828295  0.53692063  0.46489512     1.06220
O5          O  0.51827381  0.47848958  0.43721039    -0.78560
O6          O  0.50862225  0.52923585  0.44153537    -0.66140
Ni7        Ni  0.52247427  0.50317252  0.55407517     1.34870
C8          C  0.51869511  0.54494822  0.45760282     0.84960
O9          O  0.54954634  0.46124851  0.51243490    -0.79100
O10         O  0.55435779  0.48319952  0.54991864    -0.89380
C11         C  0.52701864  0.45737260  0.44710256     0.84530
O12         O  0.50260858  0.47201976  0.55711338    -0.67580
O13         O  0.45618921  0.51999818  0.44844398    -0.86870
C14         C  0.49210491  0.45655272  0.54107973     0.85360
C15         C  0.56089103  0.46506338  0.53417300     1.06930
H16         H  0.47445770  0.48485591  0.48521532     0.38730
O17         O  0.48990280  0.49480685  0.48063299    -1.09520
O18         O  0.51332882  0.54502949  0.48186769    -0.66180
Ni19       Ni  0.48948586  0.52419332  0.50295749     1.26350
O20         O  0.49613261  0.45735819  0.51664079    -0.66400
O21         O  0.45939590  0.54057386  0.48677163    -0.78700
C22         C  0.48151615  0.54363822  0.55147636     0.84750
O23         O  0.48816823  0.55094482  0.52874368    -0.65870
Ni24       Ni  0.48730765  0.49905103  0.44435088     1.27450
Ni25       Ni  0.52005465  0.47790834  0.49565330     1.26060
H26         H  0.53517948  0.51731800  0.51307365     0.39290
O27         O  0.48343930  0.21819681  0.19115873    -0.80660
O28         O  0.52554904  0.31120322  0.25824677    -0.65350
O29         O  0.51772636  0.24579676  0.22377174    -1.11960
C30         C  0.46373053  0.22447096  0.29617965     1.06220
O31         O  0.53044776  0.29231688  0.29667984    -0.78560
O32         O  0.52927446  0.24123038  0.30093662    -0.66140
Ni33       Ni  0.50993182  0.24442552  0.18751397     1.34870
C34         C  0.53377877  0.22105189  0.28741892     0.84960
O35         O  0.54658393  0.29134237  0.21583697    -0.79100
O36         O  0.53520546  0.27096901  0.17923988    -0.89380
C37         C  0.53590798  0.31024782  0.28058493     0.84530
O38         O  0.48215277  0.26955002  0.18817309    -0.67580
O39         O  0.47578826  0.24233047  0.30840392    -0.86870
C40         C  0.47907579  0.29062052  0.20067412     0.85360
C41         C  0.54818323  0.28818733  0.19144754     1.06930
H42         H  0.47886269  0.27506857  0.26117058     0.38730
O43         O  0.49542654  0.26584843  0.26381931    -1.09520
O44         O  0.52061856  0.21530318  0.26718209    -0.66180
Ni45       Ni  0.49235027  0.23239218  0.24786390     1.26350
O46         O  0.49326396  0.29680004  0.22015435    -0.66400
O47         O  0.46713435  0.21998671  0.27216883    -0.78700
C48         C  0.47789131  0.20058631  0.20759394     0.84750
O49         O  0.48815364  0.20012551  0.22995959    -0.65870
Ni50       Ni  0.50257309  0.26748757  0.30027317     1.27450
Ni51       Ni  0.52105378  0.27914762  0.23993027     1.26060
H52         H  0.53432318  0.23654116  0.22607919     0.39290
C53         C  0.80168330  0.78945358  0.79730088     0.03360
C54         C  0.81297593  0.79948659  0.77422981    -0.12790
C55         C  0.80226894  0.82189642  0.76208584     0.00860
C56         C  0.77947289  0.83357532  0.77259119    -0.11320
C57         C  0.76827640  0.82458064  0.79580930     0.03350
C58         C  0.77965878  0.80265859  0.80817884    -0.10740
H59         H  0.83042759  0.79023349  0.76601224     0.08940
H60         H  0.77054971  0.85014110  0.76268982     0.06470
H61         H  0.77197599  0.79651182  0.82681447     0.06320
C62         C  0.76977573  0.97073428  0.94690196     0.03360
C63         C  0.77800501  0.95684543  0.96918972    -0.12790
C64         C  0.80037795  0.96454809  0.98332063     0.00860
C65         C  0.81481016  0.98612841  0.97462978    -0.11320
C66         C  0.80710148  0.00017422  0.95245567     0.03350
C67         C  0.78429912  0.99262533  0.93899925    -0.10740
H68         H  0.76709942  0.93989635  0.97547646     0.08940
H69         H  0.83233189  0.99191621  0.98506543     0.06470
H70         H  0.77800925  0.00373701  0.92217012     0.06320
C71         C  0.99393358  0.80474440  0.95589879     0.03360
C72         C  0.98119589  0.81872793  0.97600653    -0.12790
C73         C  0.95769115  0.80930188  0.98721506     0.00860
C74         C  0.94701886  0.78595656  0.97793356    -0.11320
C75         C  0.95890534  0.77259824  0.95728399     0.03350
C76         C  0.98317057  0.78114254  0.94762464    -0.10740
H77         H  0.98866324  0.83749311  0.98195493     0.08940
H78         H  0.92862174  0.77884223  0.98592206     0.06470
H79         H  0.99293987  0.77007918  0.93239200     0.06320
C80         C  0.95833824  0.96586423  0.76797354     0.03360
C81         C  0.94778293  0.98864858  0.77962762    -0.12790
C82         C  0.95861206  0.99855517  0.80282526     0.00860
C83         C  0.98013785  0.98521176  0.81423523    -0.11320
C84         C  0.99160375  0.96317703  0.80245274     0.03350
C85         C  0.98088558  0.95404663  0.77909069    -0.10740
H86         H  0.93098927  0.99844164  0.77079907     0.08940
H87         H  0.98748591  0.99153548  0.83288169     0.06470
H88         H  0.99014697  0.93747752  0.76956622     0.06320
O89         O  0.08781636  0.91203710  0.87245944    -0.74200
O90         O  0.14156344  0.86780079  0.90265211    -0.74230
O91         O  0.14140113  0.90894410  0.86987878    -0.74280
O92         O  0.08861547  0.87155533  0.90646041    -0.74330
O93         O  0.08557951  0.84306668  0.87398477    -0.74270
O94         O  0.13736951  0.88232142  0.83596898    -0.74240
O95         O  0.13916317  0.84097817  0.86868509    -0.74220
O96         O  0.08387522  0.88337075  0.84024355    -0.74280
Ni97       Ni  0.11498190  0.89108831  0.88901183     1.25410
Ni98       Ni  0.11139679  0.86144671  0.85349815     1.25360
C99         C  0.07659039  0.90447829  0.85148951     0.87980
C100        C  0.14913262  0.84714823  0.89053772     0.87910
C101        C  0.14813103  0.90196439  0.84701273     0.87940
C102        C  0.07847244  0.85118357  0.89656510     0.88110
O103        O  0.90627310  0.88078142  0.08031202    -0.74200
O104        O  0.86238729  0.91239277  0.13247550    -0.74230
O105        O  0.90243163  0.87716099  0.13260293    -0.74280
O106        O  0.86572110  0.91601101  0.08008699    -0.74330
O107        O  0.83719766  0.88347446  0.07561515    -0.74270
O108        O  0.87353240  0.84489394  0.12900590    -0.74240
O109        O  0.83301830  0.88056631  0.12798581    -0.74220
O110        O  0.87730738  0.84851752  0.07643762    -0.74280
Ni111      Ni  0.88523979  0.89770661  0.10652353     1.25410
Ni112      Ni  0.85425248  0.86316561  0.10221042     1.25360
C113        C  0.89879442  0.85963721  0.06954885     0.87980
C114        C  0.84031625  0.90194885  0.13847293     0.87910
C115        C  0.89401992  0.85474250  0.13963821     0.87940
C116        C  0.84556510  0.90603028  0.06897855     0.88110
O117        O  0.87523149  0.86140178  0.66668810    -0.74200
O118        O  0.91927219  0.89675403  0.61805398    -0.74230
O119        O  0.91545114  0.89553826  0.67053110    -0.74280
O120        O  0.87813364  0.86310591  0.61414890    -0.74330
O121        O  0.84826869  0.89550282  0.61507812    -0.74270
O122        O  0.88831431  0.93002847  0.66778011    -0.74240
O123        O  0.88984539  0.92938212  0.61501229    -0.74220
O124        O  0.84783126  0.89581236  0.66788499    -0.74280
Ni125      Ni  0.89802868  0.87801906  0.64228175     1.25410
Ni126      Ni  0.86750484  0.91388035  0.64130001     1.25360
C127        C  0.85482201  0.87303151  0.67601509     0.87980
C128        C  0.91218066  0.91890924  0.60874706     0.87910
C129        C  0.90799816  0.91824671  0.67840146     0.87940
C130        C  0.85654338  0.87366510  0.60595836     0.88110
O131        O  0.87616462  0.68884852  0.90971474    -0.74200
O132        O  0.84011031  0.63699409  0.87050916    -0.74230
O133        O  0.87657184  0.63615199  0.90890026    -0.74280
O134        O  0.83944633  0.69046949  0.87097952    -0.74330
O135        O  0.87204604  0.69113947  0.84176575    -0.74270
O136        O  0.90812906  0.63667221  0.87868824    -0.74240
O137        O  0.87190946  0.63824316  0.84033207    -0.74220
O138        O  0.90820329  0.68908053  0.87980085    -0.74280
Ni139      Ni  0.85678035  0.66313938  0.89103704     1.25410
Ni140      Ni  0.89112539  0.66376789  0.85908703     1.25360
C141        C  0.89839332  0.69713303  0.90127662     0.87980
C142        C  0.85044366  0.62881581  0.84927321     0.87910
C143        C  0.89879182  0.62764868  0.90001644     0.87940
C144        C  0.85006580  0.70024453  0.85047925     0.88110
O145        O  0.66926465  0.87368368  0.86069245    -0.74200
O146        O  0.61676669  0.91434224  0.89578654    -0.74230
O147        O  0.61577288  0.87747006  0.85895336    -0.74280
O148        O  0.66990778  0.91091965  0.89779812    -0.74330
O149        O  0.67248364  0.94211010  0.86763251    -0.74270
O150        O  0.61929216  0.90747494  0.82765906    -0.74240
O151        O  0.61838285  0.94500369  0.86495893    -0.74220
O152        O  0.67303759  0.90489629  0.83069630    -0.74280
Ni153      Ni  0.64279793  0.89302138  0.87932129     1.25410
Ni154      Ni  0.64583226  0.92601402  0.84658668     1.25360
C155        C  0.68032225  0.88283139  0.84027859     0.87980
C156        C  0.60902384  0.93624489  0.88639439     0.87910
C157        C  0.60866234  0.88690270  0.83700708     0.87940
C158        C  0.68023474  0.93191969  0.88912781     0.88110
O159        O  0.89151326  0.09079428  0.92104474    -0.74200
O160        O  0.93235776  0.14461992  0.88890490    -0.74230
O161        O  0.89563091  0.14303450  0.92795435    -0.74280
O162        O  0.92784827  0.09245597  0.88237875    -0.74330
O163        O  0.89483483  0.09835989  0.85426352    -0.74270
O164        O  0.86425150  0.15070141  0.89848344    -0.74240
O165        O  0.90037067  0.15083225  0.85971557    -0.74220
O166        O  0.85876325  0.09870018  0.89306459    -0.74280
Ni167      Ni  0.91302201  0.11758239  0.90612980     1.25410
Ni168      Ni  0.87847336  0.12494860  0.87534920     1.25360
C169        C  0.86837661  0.08592435  0.91230719     0.87980
C170        C  0.92325433  0.15622651  0.86868101     0.87910
C171        C  0.87435654  0.15491582  0.92083052     0.87940
C172        C  0.91626133  0.08661618  0.86109049     0.88110
O173        O  0.23986213  0.44253402  0.28618473    -0.80660
O174        O  0.27565844  0.52943946  0.20716440    -0.65350
O175        O  0.26997913  0.48230596  0.26437909    -1.11960
C176        C  0.20295102  0.54351447  0.29184778     1.06220
O177        O  0.27383310  0.56283221  0.23429962    -0.78560
O178        O  0.25994137  0.56221905  0.28435632    -0.66140
Ni179      Ni  0.26666901  0.44587443  0.26015098     1.34870
C180        C  0.27115365  0.54635230  0.29987096     0.84960
O181        O  0.30177745  0.48552712  0.21956879    -0.79100
O182        O  0.29323315  0.44507453  0.23368500    -0.89380
C183        C  0.28250256  0.55235992  0.21358010     0.84530
O184        O  0.23956778  0.44803573  0.23492055    -0.67580
O185        O  0.20854239  0.55652574  0.27147133    -0.86870
C186        C  0.23628836  0.46281530  0.21538621     0.85360
C187        C  0.30585491  0.46091958  0.21930540     1.06930
H188        H  0.22690342  0.51677543  0.24041805     0.38730
O189        O  0.24249045  0.52142845  0.25008976    -1.09520
O190        O  0.26805830  0.52172884  0.29898722    -0.66180
Ni191      Ni  0.24183266  0.50132337  0.28103960     1.26350
O192        O  0.24867441  0.48421573  0.21217989    -0.66400
O193        O  0.21429253  0.52181943  0.29752069    -0.78700
C194        C  0.23393496  0.45480969  0.30680832     0.84750
O195        O  0.24055032  0.47838794  0.31024244    -0.65870
Ni196      Ni  0.24111475  0.55824733  0.25256888     1.27450
Ni197      Ni  0.27230236  0.50418280  0.23442093     1.26060
H198        H  0.28603192  0.48467017  0.27419097     0.39290
O199        O  0.19584778  0.27325546  0.54256314    -0.80660
O200        O  0.26580227  0.23048733  0.44781107    -0.65350
O201        O  0.23218989  0.24508176  0.51307811    -1.11960
C202        C  0.30460140  0.29823819  0.53074810     1.06220
O203        O  0.30718024  0.23318528  0.46174221    -0.78560
O204        O  0.30552454  0.23115333  0.51268460    -0.66140
Ni205      Ni  0.19498970  0.25222154  0.51239123     1.34870
C206        C  0.29466070  0.23093169  0.53487847     0.84960
O207        O  0.22482371  0.21085592  0.47185059    -0.79100
O208        O  0.18767601  0.23176897  0.48207330    -0.89380
C209        C  0.29007172  0.22402611  0.44655580     0.84530
O210        O  0.20124155  0.28203026  0.49194385    -0.67580
O211        O  0.31668124  0.28252396  0.51579577    -0.86870
C212        C  0.20901730  0.28082842  0.46860126     0.85360
C213        C  0.20010629  0.21427541  0.46954183     1.06930
H214        H  0.26848152  0.28105190  0.47825101     0.38730
O215        O  0.27159470  0.26614533  0.48933575    -1.09520
O216        O  0.27710293  0.24773509  0.54197858    -0.66180
Ni217      Ni  0.25545720  0.27306413  0.52264297     1.26350
O218        O  0.22601324  0.26377738  0.46075614    -0.66400
O219        O  0.27951591  0.30016048  0.53144691    -0.78700
C220        C  0.21213603  0.28346889  0.55797891     0.84750
O221        O  0.23712798  0.28161821  0.55468831    -0.65870
Ni222      Ni  0.30884882  0.25865454  0.48861210     1.27450
Ni223      Ni  0.24826834  0.23849119  0.47995079     1.26060
H224        H  0.23518175  0.23006160  0.52418789     0.39290
O225        O  0.49254717  0.72104449  0.69380469    -0.80660
O226        O  0.53486563  0.81395164  0.76383493    -0.65350
O227        O  0.52149364  0.74915448  0.73014483    -1.11960
C228        C  0.46411210  0.73060740  0.79790385     1.06220
O229        O  0.52686954  0.80181479  0.80467815    -0.78560
O230        O  0.53426217  0.74987002  0.79997975    -0.66140
Ni231      Ni  0.51577458  0.75001585  0.69337754     1.34870
C232        C  0.53351630  0.72707907  0.79049036     0.84960
O233        O  0.55671304  0.79047511  0.72411929    -0.79100
O234        O  0.53848411  0.77910973  0.68675610    -0.89380
C235        C  0.53694440  0.81723635  0.78812878     0.84530
O236        O  0.48619148  0.77264073  0.69745224    -0.67580
O237        O  0.48183778  0.74212245  0.81090516    -0.86870
C238        C  0.48676836  0.79536854  0.70708951     0.85360
C239        C  0.55472493  0.79249944  0.69966931     1.06930
H240        H  0.48350435  0.78491649  0.76490370     0.38730
O241        O  0.49831076  0.77323816  0.76811605    -1.09520
O242        O  0.51571619  0.72016622  0.77427996    -0.66180
Ni243      Ni  0.49173195  0.74051350  0.75181939     1.26350
O244        O  0.50373566  0.80214543  0.72407706    -0.66400
O245        O  0.46210577  0.73328929  0.77357438    -0.78700
C246        C  0.48171126  0.70578887  0.70991983     0.84750
O247        O  0.48402783  0.70858823  0.73427854    -0.65870
Ni248      Ni  0.50429642  0.77190613  0.80482188     1.27450
Ni249      Ni  0.52777651  0.78211182  0.74631528     1.26060
H250        H  0.53626305  0.73755934  0.73361216     0.39290
O251        O  0.23805509  0.80999108  0.96187673    -0.80660
O252        O  0.27153161  0.73597150  0.05350463    -0.65350
O253        O  0.26884419  0.77437677  0.99003710    -1.11960
C254        C  0.20685111  0.70858563  0.96690944     1.06220
O255        O  0.27414760  0.69875648  0.03191815    -0.78560
O256        O  0.26697487  0.69283265  0.98155901    -0.66140
Ni257      Ni  0.26287994  0.81113100  0.98973820     1.34870
C258        C  0.27796448  0.70677016  0.96431119     0.84960
O259        O  0.29635948  0.77810280  0.03694962    -0.79100
O260        O  0.28661266  0.81651864  0.01818211    -0.89380
C261        C  0.28095227  0.71312563  0.05073094     0.84530
O262        O  0.23338858  0.81070470  0.01257849    -0.67580
O263        O  0.21358663  0.69649625  0.98758283    -0.86870
C264        C  0.22868271  0.79761736  0.03295120     0.85360
C265        C  0.29860471  0.80273182  0.03519240     1.06930
H266        H  0.22573316  0.74109989  0.01532652     0.38730
O267        O  0.24240653  0.73612903  0.00744968    -1.09520
O268        O  0.27141810  0.73061677  0.96030448    -0.66180
Ni269      Ni  0.24298577  0.75239899  0.97434457     1.26350
O270        O  0.24249529  0.77775535  0.03977374    -0.66400
O271        O  0.21710715  0.72995148  0.95954339    -0.78700
C272        C  0.23242982  0.79435197  0.94372812     0.84750
O273        O  0.24227507  0.77152663  0.94257370    -0.65870
Ni274      Ni  0.24366168  0.69923675  0.00990750     1.27450
Ni275      Ni  0.26955925  0.75663285  0.02265583     1.26060
H276        H  0.28574668  0.77137949  0.98168503     0.39290
O277        O  0.98759495  0.53299670  0.05352932    -0.80660
O278        O  0.02770153  0.45472028  0.97326261    -0.65350
O279        O  0.02120640  0.51628844  0.01381960    -1.11960
C280        C  0.96056957  0.54724833  0.95263524     1.06220
O281        O  0.02210345  0.47512254  0.93550721    -0.78560
O282        O  0.02826561  0.52552498  0.94285207    -0.66140
Ni283      Ni  0.02103468  0.51509242  0.05059022     1.34870
C284        C  0.03019297  0.54636004  0.95582363     0.84960
O285        O  0.05257329  0.47033970  0.01589989    -0.79100
O286        O  0.05418744  0.49668197  0.05063314    -0.89380
C287        C  0.03142986  0.45641646  0.94891799     0.84530
O288        O  0.00291299  0.48300634  0.05510291    -0.67580
O289        O  0.97518919  0.53392422  0.93739036    -0.86870
C290        C  0.99392727  0.46613329  0.03959862     0.85360
C291        C  0.06235195  0.47685167  0.03785220     1.06930
H292        H  0.97915579  0.48928341  0.97814547     0.38730
O293        O  0.99476465  0.49964261  0.97538716    -1.09520
O294        O  0.01498913  0.55200739  0.97495409    -0.66180
Ni295      Ni  0.99125868  0.53055394  0.99588111     1.26350
O296        O  0.99879463  0.46589767  0.01537338    -0.66400
O297        O  0.96130053  0.54431584  0.97713488    -0.78700
C298        C  0.97875311  0.55301286  0.04162681     0.84750
O299        O  0.98724138  0.55904515  0.01925440    -0.65870
Ni300      Ni  0.99848299  0.50408694  0.93899793     1.27450
Ni301      Ni  0.02408616  0.48479665  0.99480168     1.26060
H302        H  0.03651562  0.52645431  0.00927447     0.39290
O303        O  0.23452229  0.94676883  0.77019737    -0.80660
O304        O  0.28076252  0.03169798  0.69744211    -0.65350
O305        O  0.27029989  0.98404177  0.75357686    -1.11960
C306        C  0.20923721  0.05001129  0.78221495     1.06220
O307        O  0.28241804  0.06370130  0.72610879    -0.78560
O308        O  0.26843048  0.06253164  0.77571354    -0.66140
Ni309      Ni  0.26576334  0.94788634  0.74928531     1.34870
C310        C  0.27676422  0.04517898  0.79135867     0.84960
O311        O  0.30265119  0.98497861  0.70871847    -0.79100
O312        O  0.29621006  0.94577866  0.72741722    -0.89380
C313        C  0.28802445  0.05449412  0.70393131     0.84530
O314        O  0.24351047  0.94991965  0.71991149    -0.67580
O315        O  0.21668096  0.06309813  0.76251058    -0.86870
C316        C  0.23877387  0.96695407  0.70264842     0.85360
C317        C  0.30761057  0.96055538  0.71100483     1.06930
H318        H  0.23113295  0.02319916  0.73008183     0.38730
O319        O  0.24691721  0.02570777  0.74026087    -1.09520
O320        O  0.27014085  0.02129128  0.79035095    -0.66180
Ni321      Ni  0.24307194  0.00437792  0.77016398     1.26350
O322        O  0.24944680  0.98938764  0.70196836    -0.66400
O323        O  0.21698531  0.02660665  0.78678823    -0.78700
C324        C  0.22799240  0.95812036  0.79114318     0.84750
O325        O  0.23801154  0.97976351  0.79766780    -0.65870
Ni326      Ni  0.24936359  0.06211031  0.74397188     1.27450
Ni327      Ni  0.27509953  0.00621564  0.72422927     1.26060
H328        H  0.28622193  0.98544568  0.76378436     0.39290
O329        O  0.69592125  0.78089593  0.52123606    -0.80660
O330        O  0.78038532  0.74012924  0.44652603    -0.65350
O331        O  0.73690049  0.74770409  0.50630269    -1.11960
C332        C  0.79982532  0.81117960  0.53185769     1.06220
O333        O  0.81631479  0.73990404  0.47122131    -0.78560
O334        O  0.81331196  0.74593808  0.52216832    -0.66140
Ni335      Ni  0.69955439  0.74747840  0.50461161     1.34870
C336        C  0.79741256  0.74240591  0.54089031     0.84960
O337        O  0.73538384  0.71689557  0.46085059    -0.79100
O338        O  0.70029623  0.71410054  0.48764747    -0.89380
C339        C  0.80411653  0.73289386  0.45091229     0.84530
O340        O  0.69554617  0.76400207  0.47155946    -0.67580
O341        O  0.81544203  0.79872820  0.51674473    -0.86870
C342        C  0.71140715  0.77248592  0.45440224     0.85360
C343        C  0.71312832  0.70707281  0.46741745     1.06930
H344        H  0.77388673  0.78788269  0.47939032     0.38730
O345        O  0.77671312  0.77260933  0.49011370    -1.09520
O346        O  0.77499362  0.75386329  0.54289007    -0.66180
Ni347      Ni  0.75523259  0.77714769  0.52021892     1.26350
O348        O  0.73642873  0.76924906  0.45556068    -0.66400
O349        O  0.77516275  0.80608097  0.53385763    -0.78700
C350        C  0.70716215  0.78943360  0.54157283     0.84750
O351        O  0.73043802  0.78212716  0.54764915    -0.65870
Ni352      Ni  0.81386409  0.76943542  0.49371185     1.27450
Ni353      Ni  0.75700215  0.74427141  0.47544234     1.26060
H354        H  0.74144133  0.73266641  0.51680213     0.39290
O355        O  0.02743545  0.81102343  0.27963360    -0.80660
O356        O  0.98615436  0.72999093  0.19971169    -0.65350
O357        O  0.99327610  0.77407237  0.25899405    -1.11960
C358        C  0.05218297  0.70741947  0.28984380     1.06220
O359        O  0.98569760  0.69413121  0.22381355    -0.78560
O360        O  0.98942360  0.69603637  0.27466308    -0.66140
Ni361      Ni  0.99852283  0.81051813  0.25584619     1.34870
C362        C  0.98212921  0.71224887  0.29184701     0.84960
O363        O  0.96307526  0.77504707  0.21291794    -0.79100
O364        O  0.97024982  0.81386825  0.23146240    -0.89380
C365        C  0.97919203  0.70652727  0.20345811     0.84530
O366        O  0.02389662  0.80899463  0.22869306    -0.67580
O367        O  0.04301988  0.69328290  0.27179166    -0.86870
C368        C  0.02883947  0.79292165  0.21063612     0.85360
C369        C  0.95832408  0.79946988  0.21523888     1.06930
H370        H  0.03402415  0.73566040  0.23553520     0.38730
O371        O  0.01770734  0.73286238  0.24489306    -1.09520
O372        O  0.99210167  0.73485999  0.29456130    -0.66180
Ni373      Ni  0.01981294  0.75318311  0.27595794     1.26350
O374        O  0.01691087  0.77129180  0.20804206    -0.66400
O375        O  0.04583511  0.73136624  0.29266038    -0.78700
C376        C  0.03284513  0.79868634  0.30037806     0.84750
O377        O  0.02311093  0.77638333  0.30493318    -0.65870
Ni378      Ni  0.01462867  0.69599115  0.24744909     1.27450
Ni379      Ni  0.99022485  0.75333346  0.22841771     1.26060
H380        H  0.97685921  0.77228924  0.26845172     0.39290
O381        O  0.56188014  0.97355925  0.03086073    -0.80660
O382        O  0.47792308  0.03109143  0.95846737    -0.65350
O383        O  0.52506679  0.01128372  0.01377676    -1.11960
C384        C  0.45477908  0.95297380  0.03454488     1.06220
O385        O  0.44447787  0.03158265  0.98604647    -0.78560
O386        O  0.44433597  0.01242373  0.03421582    -0.66140
Ni387      Ni  0.55993844  0.00048847  0.00549493     1.34870
C388        C  0.46192534  0.01756978  0.05086084     0.84960
O389        O  0.52480970  0.04891794  0.97448206    -0.79100
O390        O  0.56295369  0.02687030  0.97900129    -0.89380
C391        C  0.45482491  0.03885573  0.96480675     0.84530
O392        O  0.54478195  0.97547247  0.98353190    -0.67580
O393        O  0.44168324  0.96327545  0.01599376    -0.86870
C394        C  0.53829572  0.98214459  0.96100097     0.85360
C395        C  0.54941458  0.04590568  0.96982018     1.06930
H396        H  0.48432012  0.97809731  0.98458436     0.38730
O397        O  0.48190268  0.99237655  0.99661926    -1.09520
O398        O  0.48589581  0.00989481  0.04906626    -0.66180
Ni399      Ni  0.50248923  0.98434517  0.02662470     1.26350
O400        O  0.52046906  0.99963403  0.95780828    -0.66400
O401        O  0.47867184  0.95872224  0.03959070    -0.78700
C402        C  0.54836864  0.96583040  0.05002764     0.84750
O403        O  0.52536502  0.97487874  0.05477755    -0.65870
Ni404      Ni  0.44472157  0.99708647  0.00059682     1.27450
Ni405      Ni  0.50266404  0.02086781  0.98482570     1.26060
H406        H  0.52583036  0.02561894  0.02583565     0.39290
C407        C  0.29204746  0.76119771  0.29560697     0.03360
C408        C  0.30183394  0.77296091  0.27298088    -0.12790
C409        C  0.29108733  0.79671935  0.26404100     0.00860
C410        C  0.26938819  0.80787357  0.27705291    -0.11320
C411        C  0.25942358  0.79641177  0.29977135     0.03350
C412        C  0.27109253  0.77329321  0.30904090    -0.10740
H413        H  0.31848576  0.76416854  0.26283240     0.08940
H414        H  0.26125121  0.82633020  0.27035486     0.06470
H415        H  0.26491596  0.76554279  0.32764180     0.06320
O416        O  0.37016006  0.67703428  0.41334725    -0.74200
O417        O  0.32793436  0.62311801  0.38289067    -0.74230
O418        O  0.36444208  0.62521178  0.42133422    -0.74280
O419        O  0.33308618  0.67489613  0.37516844    -0.74330
O420        O  0.36513661  0.66774105  0.34603835    -0.74270
O421        O  0.39585368  0.61704748  0.39174007    -0.74240
O422        O  0.35963121  0.61576263  0.35358044    -0.74220
O423        O  0.40174203  0.66918752  0.38393828    -0.74280
Ni424      Ni  0.34778117  0.65038352  0.39924909     1.25410
Ni425      Ni  0.38176790  0.64214986  0.36784485     1.25360
C426        C  0.39288149  0.68205594  0.40345346     0.87980
C427        C  0.33677512  0.61067953  0.36300784     0.87910
C428        C  0.38502166  0.61264371  0.41380854     0.87940
C429        C  0.34379112  0.67942867  0.35308895     0.88110
C430        C  0.49457326  0.95252290  0.29986602     0.03360
C431        C  0.47985829  0.94376534  0.27862408    -0.12790
C432        C  0.45622240  0.95621788  0.27126692     0.00860
C433        C  0.44845754  0.97924689  0.28389238    -0.11320
C434        C  0.46375733  0.98958252  0.30415306     0.03350
C435        C  0.48658633  0.97579051  0.31238065    -0.10740
H436        H  0.48658285  0.92676380  0.26791944     0.08940
H437        H  0.42992631  0.98862344  0.27854838     0.06470
H438        H  0.49785590  0.98296781  0.32866044     0.06320
O439        O  0.58921745  0.86827947  0.32681773    -0.74200
O440        O  0.64187981  0.82439640  0.35930080    -0.74230
O441        O  0.58850686  0.82960138  0.36236004    -0.74280
O442        O  0.64275732  0.86311995  0.32287183    -0.74330
O443        O  0.64713731  0.89276770  0.35422696    -0.74270
O444        O  0.59384771  0.85835937  0.39432602    -0.74240
O445        O  0.64712825  0.85451206  0.39003135    -0.74220
O446        O  0.59397972  0.89747200  0.35847592    -0.74280
Ni447      Ni  0.61551449  0.84529582  0.34165337     1.25410
Ni448      Ni  0.62067458  0.87682118  0.37535433     1.25360
C449        C  0.58271093  0.88996847  0.33761931     0.87980
C450        C  0.65296006  0.83230734  0.38019442     0.87910
C451        C  0.58228674  0.83840814  0.38481419     0.87940
C452        C  0.65371376  0.88348138  0.33206216     0.88110
O453        O  0.36951766  0.84803610  0.18076085    -0.74200
O454        O  0.40981163  0.88337010  0.12956972    -0.74230
O455        O  0.40684446  0.88473052  0.18207425    -0.74280
O456        O  0.37215122  0.84696168  0.12839795    -0.74330
O457        O  0.34083311  0.87789345  0.12668721    -0.74270
O458        O  0.37628449  0.91641588  0.17944772    -0.74240
O459        O  0.37840703  0.91421455  0.12657476    -0.74220
O460        O  0.33825881  0.87913163  0.17913115    -0.74280
Ni461      Ni  0.39068794  0.86472542  0.15532493     1.25410
Ni462      Ni  0.35733057  0.89810851  0.15297866     1.25360
C463        C  0.34737147  0.85759173  0.18838702     0.87980
C464        C  0.40033370  0.90397341  0.11891013     0.87910
C465        C  0.39725196  0.90665912  0.18970727     0.87940
C466        C  0.35094965  0.85646380  0.11836802     0.88110
C467        C  0.27715916  0.94921979  0.45116009     0.03360
C468        C  0.28790993  0.97099221  0.43832669    -0.12790
C469        C  0.31058661  0.98328571  0.44793970     0.00860
C470        C  0.32247945  0.97349309  0.47057984    -0.11320
C471        C  0.31344652  0.95064513  0.48246249     0.03350
C472        C  0.29039015  0.93898786  0.47302012    -0.10740
H473        H  0.27904823  0.97798075  0.42046892     0.08940
H474        H  0.33903590  0.98363986  0.47898624     0.06470
H475        H  0.28288454  0.92175873  0.48258879     0.06320
C476        C  0.49658258  0.79239372  0.44290603     0.03360
C477        C  0.48131448  0.77175883  0.43342705    -0.12790
C478        C  0.45813300  0.76391164  0.44639729     0.00860
C479        C  0.45050661  0.77722871  0.46914325    -0.11320
C480        C  0.46621663  0.79707568  0.47963830     0.03350
C481        C  0.48931395  0.80438019  0.46636861    -0.10740
H482        H  0.48758149  0.76188054  0.41585750     0.08940
H483        H  0.43173892  0.77283125  0.47820442     0.06470
H484        H  0.50130371  0.82000516  0.47388264     0.06320
O485        O  0.39446875  0.91259175  0.57353538    -0.74200
O486        O  0.43374639  0.87931341  0.62829756    -0.74230
O487        O  0.43332750  0.87600799  0.57531832    -0.74280
O488        O  0.39479563  0.91616250  0.62618563    -0.74330
O489        O  0.36490852  0.88465359  0.62822084    -0.74270
O490        O  0.40306703  0.84480264  0.57780552    -0.74240
O491        O  0.40342634  0.84820956  0.63024275    -0.74220
O492        O  0.36407740  0.88147253  0.57615992    -0.74280
Ni493      Ni  0.41523851  0.89712950  0.60076481     1.25410
Ni494      Ni  0.38286463  0.86368059  0.60317862     1.25360
C495        C  0.37270766  0.90253591  0.56600184     0.87980
C496        C  0.42481855  0.85834043  0.63854276     0.87910
C497        C  0.42423962  0.85401965  0.56783448     0.87940
C498        C  0.37336199  0.90688477  0.63560290     0.88110
O499        O  0.39046795  0.08318334  0.34285902    -0.74200
O500        O  0.34323862  0.13374901  0.37284456    -0.74230
O501        O  0.38523607  0.13561041  0.34071871    -0.74280
O502        O  0.34836572  0.08088770  0.37553881    -0.74330
O503        O  0.37631539  0.08374591  0.40885665    -0.74270
O504        O  0.41186555  0.13973779  0.37482169    -0.74240
O505        O  0.36967501  0.13654237  0.40733513    -0.74220
O506        O  0.41799677  0.08678058  0.37638816    -0.74280
Ni507      Ni  0.36586018  0.10819852  0.35683007     1.25410
Ni508      Ni  0.39492308  0.11189525  0.39309885     1.25360
C509        C  0.41189153  0.07657658  0.35452771     0.87980
C510        C  0.34877024  0.14359164  0.39492545     0.87910
C511        C  0.40447041  0.14687518  0.35208862     0.87940
C512        C  0.35673555  0.07291315  0.39767284     0.88110
O513        O  0.17250241  0.84080763  0.38267822    -0.74200
O514        O  0.12065514  0.87942312  0.42199982    -0.74230
O515        O  0.11899622  0.84206097  0.38478468    -0.74280
O516        O  0.17488399  0.87789648  0.41988010    -0.74330
O517        O  0.17351622  0.90949768  0.39004050    -0.74270
O518        O  0.11969760  0.87267089  0.35400837    -0.74240
O519        O  0.12018086  0.90972557  0.39089474    -0.74220
O520        O  0.17291479  0.87268795  0.35307442    -0.74280
Ni521      Ni  0.14676493  0.85897031  0.40355617     1.25410
Ni522      Ni  0.14649071  0.89223627  0.37099436     1.25360
C523        C  0.18132177  0.85064644  0.36149563     0.87980
C524        C  0.11161241  0.90090064  0.41253159     0.87910
C525        C  0.11068569  0.85121489  0.36308178     0.87940
C526        C  0.18373645  0.89929782  0.41043567     0.88110
O527        O  0.77488063  0.03634974  0.18928991    -0.80660
O528        O  0.73839152  0.95024503  0.26266407    -0.65350
O529        O  0.74193966  0.01526529  0.22784763    -1.11960
C530        C  0.79626790  0.04079093  0.29488107     1.06220
O531        O  0.73340917  0.96854909  0.30145255    -0.78560
O532        O  0.72765438  0.02054644  0.29633868    -0.66140
Ni533      Ni  0.74238456  0.01692829  0.19085593     1.34870
C534        C  0.72825738  0.04283250  0.28559538     0.84960
O535        O  0.71418017  0.96892396  0.22192935    -0.79100
O536        O  0.71012337  0.99729925  0.18893516    -0.89380
C537        C  0.72966313  0.94991347  0.28567082     0.84530
O538        O  0.76210407  0.98564424  0.18446394    -0.67580
O539        O  0.78004790  0.02709523  0.30802281    -0.86870
C540        C  0.77213190  0.96806834  0.19893376     0.85360
C541        C  0.70344276  0.97657376  0.20098103     1.06930
H542        H  0.78263544  0.98572668  0.26544969     0.38730
O543        O  0.76645797  0.99587015  0.26686044    -1.09520
O544        O  0.74563482  0.04886314  0.26861416    -0.66180
Ni545      Ni  0.77060980  0.02776141  0.24829672     1.26350
O546        O  0.76789520  0.96661596  0.22328080    -0.66400
O547        O  0.79834628  0.03919180  0.27029541    -0.78700
C548        C  0.78400664  0.05432045  0.20360347     0.84750
O549        O  0.77636407  0.05755889  0.22689507    -0.65870
Ni550      Ni  0.75707127  0.99788249  0.30251873     1.27450
Ni551      Ni  0.74034290  0.98225332  0.24438950     1.26060
H552        H  0.72605194  0.02463640  0.23287890     0.39290
O553        O  0.73593949  0.19755294  0.97675768    -0.80660
O554        O  0.81215152  0.27376027  0.02592499    -0.65350
O555        O  0.74981389  0.23463525  0.01373878    -1.11960
C556        C  0.72623685  0.30077328  0.95607603     1.06220
O557        O  0.78969632  0.31121369  0.02700576    -0.78560
O558        O  0.73755998  0.30594476  0.02469824    -0.66140
Ni559      Ni  0.75159203  0.19771981  0.01065773     1.34870
C560        C  0.71619878  0.29349543  0.02265247     0.84960
O561        O  0.79389320  0.23007089  0.04622299    -0.79100
O562        O  0.76769242  0.19496053  0.04406087    -0.89380
C563        C  0.80932517  0.29704438  0.03378064     0.84530
O564        O  0.78559666  0.19410007  0.99468165    -0.67580
O565        O  0.73837348  0.31496849  0.97238168    -0.86870
C566        C  0.80313402  0.21025444  0.98789110     0.85360
C567        C  0.78687101  0.20750724  0.05381254     1.06930
H568        H  0.78061990  0.27373240  0.97738860     0.38730
O569        O  0.76883998  0.27498944  0.99215597    -1.09520
O570        O  0.71331441  0.27457240  0.00682210    -0.66180
Ni571      Ni  0.73813018  0.25487553  0.98479391     1.26350
O572        O  0.80249703  0.23421512  0.99420483    -0.66400
O573        O  0.72781016  0.27601600  0.95612154    -0.78700
C574        C  0.71470695  0.20888300  0.96957803     0.84750
O575        O  0.70948601  0.23208717  0.97676994    -0.65870
Ni576      Ni  0.76426953  0.31094223  0.99938696     1.27450
Ni577      Ni  0.78162321  0.25310809  0.01952640     1.26060
H578        H  0.73822627  0.23825035  0.02827376     0.39290
C579        C  0.30696626  0.30293087  0.75660581     0.03360
C580        C  0.28431262  0.31463625  0.76768267    -0.12790
C581        C  0.27149844  0.30315407  0.78893229     0.00860
C582        C  0.28079900  0.27910101  0.79847513    -0.11320
C583        C  0.30355857  0.26712852  0.78814210     0.03350
C584        C  0.31643010  0.27910917  0.76701331    -0.10740
H585        H  0.27701458  0.33312999  0.76022470     0.08940
H586        H  0.27081078  0.27017013  0.81479608     0.06470
H587        H  0.33418121  0.27018699  0.75909165     0.06320
C588        C  0.48558695  0.29834138  0.94634078     0.03360
C589        C  0.47262260  0.27788986  0.93365358    -0.12790
C590        C  0.44966745  0.26683976  0.94440508     0.00860
C591        C  0.43957393  0.27677930  0.96796117    -0.11320
C592        C  0.45227923  0.29723547  0.98079465     0.03350
C593        C  0.47584868  0.30697551  0.97036078    -0.10740
H594        H  0.47976447  0.27124900  0.91492643     0.08940
H595        H  0.42150562  0.26898108  0.97599005     0.06470
H596        H  0.48633276  0.32198708  0.98075653     0.06320
C597        C  0.45497819  0.49396520  0.79510269     0.03360
C598        C  0.44648924  0.48268359  0.77157472    -0.12790
C599        C  0.45909568  0.46007162  0.76176773     0.00860
C600        C  0.48082993  0.44961546  0.77500122    -0.11320
C601        C  0.48886497  0.45973351  0.79876131     0.03350
C602        C  0.47606300  0.48199803  0.80870293    -0.10740
H603        H  0.42991041  0.49115153  0.76117485     0.08940
H604        H  0.49128587  0.43286221  0.76701112     0.06470
H605        H  0.48188825  0.48941853  0.82747994     0.06320
C606        C  0.30644272  0.45507583  0.98115564     0.03360
C607        C  0.28387334  0.44467689  0.96931338    -0.12790
C608        C  0.27393928  0.45504944  0.94596332     0.00860
C609        C  0.28625597  0.47682238  0.93492312    -0.11320
C610        C  0.30790594  0.48858092  0.94706871     0.03350
C611        C  0.31789541  0.47751447  0.97019183    -0.10740
H612        H  0.27393059  0.42835582  0.97826921     0.08940
H613        H  0.27947345  0.48420985  0.91635369     0.06470
H614        H  0.33480335  0.48618385  0.97949002     0.06320
O615        O  0.38076024  0.59041122  0.83854847    -0.74200
O616        O  0.34355444  0.64199849  0.87879297    -0.74230
O617        O  0.38074249  0.64361398  0.84062595    -0.74280
O618        O  0.34415377  0.58892908  0.87703702    -0.74330
O619        O  0.37721429  0.58651416  0.90554592    -0.74270
O620        O  0.41187695  0.64250801  0.87116722    -0.74240
O621        O  0.37464921  0.63914139  0.90936899    -0.74220
O622        O  0.41361031  0.58995631  0.86734154    -0.74280
Ni623      Ni  0.36115715  0.61635790  0.85765995     1.25410
Ni624      Ni  0.39546386  0.61460056  0.88939296     1.25360
C625        C  0.40318995  0.58152571  0.84634018     0.87980
C626        C  0.35254099  0.64842137  0.90104374     0.87910
C627        C  0.40260206  0.65188473  0.84997468     0.87940
C628        C  0.35508618  0.57834032  0.89700186     0.88110
O629        O  0.58125095  0.37327288  0.90620353    -0.74200
O630        O  0.63576016  0.40968896  0.86950997    -0.74230
O631        O  0.58233666  0.41142841  0.87009671    -0.74280
O632        O  0.63482238  0.37242113  0.90601747    -0.74330
O633        O  0.63618145  0.34261115  0.87463480    -0.74270
O634        O  0.58049328  0.38035518  0.83990043    -0.74240
O635        O  0.63431484  0.38022612  0.83780800    -0.74220
O636        O  0.58251058  0.34208483  0.87610706    -0.74280
Ni637      Ni  0.60853262  0.39274623  0.88906438     1.25410
Ni638      Ni  0.60832412  0.36021854  0.85596249     1.25360
C639        C  0.57297515  0.35154842  0.89715677     0.87980
C640        C  0.64418256  0.40081060  0.84769160     0.87910
C641        C  0.57239391  0.40217856  0.84938561     0.87940
C642        C  0.64488529  0.35175130  0.89608732     0.88110
O643        O  0.35817832  0.37851639  0.66643715    -0.74200
O644        O  0.39974389  0.40937368  0.61168082    -0.74230
O645        O  0.35888228  0.37589944  0.61400649    -0.74280
O646        O  0.39816439  0.41311229  0.66401851    -0.74330
O647        O  0.42619864  0.37944920  0.66845096    -0.74270
O648        O  0.38831616  0.34321771  0.61501831    -0.74240
O649        O  0.42924846  0.37697310  0.61581974    -0.74220
O650        O  0.38629889  0.34464888  0.66732272    -0.74280
Ni651      Ni  0.37773468  0.39539988  0.63893066     1.25410
Ni652      Ni  0.40860946  0.35989630  0.64171765     1.25360
C653        C  0.36534170  0.35615680  0.67553994     0.87980
C654        C  0.42164407  0.39826249  0.60501541     0.87910
C655        C  0.36689853  0.35359037  0.60611387     0.87940
C656        C  0.41815532  0.40240763  0.67495762     0.88110
O657        O  0.38007603  0.41283507  0.07608190    -0.74200
O658        O  0.41984018  0.37520472  0.12788475    -0.74230
O659        O  0.41609819  0.37345712  0.07514463    -0.74280
O660        O  0.38388844  0.41486810  0.12835026    -0.74330
O661        O  0.35163433  0.38565840  0.13172482    -0.74270
O662        O  0.38420555  0.34394784  0.07862964    -0.74240
O663        O  0.38748265  0.34627565  0.13111328    -0.74220
O664        O  0.34812402  0.38330166  0.07886584    -0.74280
Ni665      Ni  0.40115422  0.39508281  0.10176243     1.25410
Ni666      Ni  0.36665822  0.36380924  0.10523252     1.25360
C667        C  0.35772519  0.40399895  0.06867459     0.87980
C668        C  0.41018367  0.35452551  0.13814670     0.87910
C669        C  0.40534081  0.35222308  0.06777664     0.87940
C670        C  0.36259703  0.40685149  0.13896924     0.88110
O671        O  0.37329710  0.17514427  0.90381482    -0.74200
O672        O  0.33455865  0.11958642  0.87341301    -0.74230
O673        O  0.37284429  0.12248794  0.91006723    -0.74280
O674        O  0.33576838  0.17213379  0.86673335    -0.74330
O675        O  0.36796033  0.16815796  0.83722278    -0.74270
O676        O  0.40343180  0.11758884  0.87920789    -0.74240
O677        O  0.36526764  0.11534189  0.84257988    -0.74220
O678        O  0.40536812  0.16998172  0.87437484    -0.74280
Ni679      Ni  0.35298747  0.14743551  0.88960668     1.25410
Ni680      Ni  0.38655219  0.14254292  0.85723648     1.25360
C681        C  0.39560711  0.18179698  0.89419824     0.87980
C682        C  0.34324663  0.10841077  0.85286447     0.87910
C683        C  0.39441198  0.11192611  0.90170178     0.87940
C684        C  0.34643833  0.17887707  0.84513215     0.88110
O685        O  0.17762481  0.41365755  0.87311330    -0.74200
O686        O  0.12275891  0.37729601  0.83773761    -0.74230
O687        O  0.12390643  0.41249221  0.87583673    -0.74280
O688        O  0.17643507  0.37774730  0.83451031    -0.74330
O689        O  0.17855407  0.34598060  0.86416829    -0.74270
O690        O  0.12635665  0.38077545  0.90549357    -0.74240
O691        O  0.12483708  0.34546536  0.86722527    -0.74220
O692        O  0.18007029  0.38150209  0.90230374    -0.74280
Ni693      Ni  0.15018012  0.39646485  0.85424200     1.25410
Ni694      Ni  0.15259315  0.36229788  0.88582053     1.25360
C695        C  0.18811175  0.40338512  0.89339127     0.87980
C696        C  0.11405824  0.35589468  0.84717142     0.87910
C697        C  0.11577946  0.40187115  0.89691500     0.87940
C698        C  0.18635162  0.35618707  0.84281322     0.88110
C699        C  0.70829097  0.73392034  0.21501347     0.03360
C700        C  0.73075383  0.72312790  0.20300035    -0.12790
C701        C  0.74209326  0.69966870  0.21184470     0.00860
C702        C  0.73159723  0.68748514  0.23392663    -0.11320
C703        C  0.70913297  0.69787879  0.24650917     0.03350
C704        C  0.69748133  0.72107250  0.23674853    -0.10740
H705        H  0.73884301  0.73242129  0.18588291     0.08940
H706        H  0.74048620  0.66944048  0.24084019     0.06470
H707        H  0.67959068  0.72878298  0.24560211     0.06320
O708        O  0.63343032  0.65446474  0.33571146    -0.74200
O709        O  0.58758709  0.62276165  0.38502738    -0.74230
O710        O  0.62940272  0.65613928  0.38760566    -0.74280
O711        O  0.59307614  0.62058254  0.33231577    -0.74330
O712        O  0.62046814  0.58651990  0.33697640    -0.74270
O713        O  0.65753551  0.62241719  0.39087259    -0.74240
O714        O  0.61567247  0.58927582  0.38976996    -0.74220
O715        O  0.66131417  0.62048100  0.33813013    -0.74280
Ni716      Ni  0.60978901  0.63957973  0.36015283     1.25410
Ni717      Ni  0.63971440  0.60342895  0.36414692     1.25360
C718        C  0.65475556  0.64288227  0.32866335     0.87980
C719        C  0.59375989  0.60090241  0.39556579     0.87910
C720        C  0.65011703  0.64539278  0.39757587     0.87940
C721        C  0.60129786  0.59787194  0.32509664     0.88110
C722        C  0.73919414  0.55733117  0.04304173     0.03360
C723        C  0.72913745  0.57021126  0.02085648    -0.12790
C724        C  0.70866257  0.55923609  0.00620946     0.00860
C725        C  0.69902147  0.53468746  0.01341618    -0.11320
C726        C  0.70793365  0.52199804  0.03594942     0.03350
C727        C  0.72796410  0.53354443  0.05071670    -0.10740
H728        H  0.73676668  0.58909189  0.01540480     0.08940
H729        H  0.68386993  0.52569846  0.00173242     0.06470
H730        H  0.73400192  0.52462468  0.06886232     0.06320
C731        C  0.52006095  0.70450261  0.04988261     0.03360
C732        C  0.52992083  0.69401853  0.02645312    -0.12790
C733        C  0.55212711  0.70505463  0.01432472     0.00860
C734        C  0.56433097  0.72668742  0.02554125    -0.11320
C735        C  0.55433624  0.73765408  0.04853200     0.03350
C736        C  0.53207940  0.72662902  0.06028173    -0.10740
H737        H  0.52111360  0.67674665  0.01823521     0.08940
H738        H  0.58171486  0.73485418  0.01638779     0.06470
H739        H  0.52450247  0.73489924  0.07816705     0.06320
C740        C  0.55879163  0.51906129  0.19552719     0.03360
C741        C  0.53605464  0.53152898  0.18547035    -0.12790
C742        C  0.52329969  0.55186231  0.19891540     0.00860
C743        C  0.53399816  0.56036807  0.22246655    -0.11320
C744        C  0.55773451  0.54977252  0.23222010     0.03350
C745        C  0.56976230  0.52859088  0.21892025    -0.10740
H746        H  0.52873915  0.52597620  0.16656957     0.08940
H747        H  0.52387202  0.57566355  0.23320685     0.06470
H748        H  0.58774809  0.51985433  0.22654045     0.06320
O749        O  0.42577940  0.62812378  0.16357751    -0.74200
O750        O  0.37173766  0.66895609  0.13048090    -0.74230
O751        O  0.37200901  0.62950926  0.16558394    -0.74280
O752        O  0.42554420  0.66670154  0.12800111    -0.74330
O753        O  0.42345296  0.63712588  0.09638021    -0.74270
O754        O  0.37014948  0.60045694  0.13360093    -0.74240
O755        O  0.37036648  0.63976899  0.09846473    -0.74220
O756        O  0.42377506  0.59833728  0.13218763    -0.74280
Ni757      Ni  0.39878287  0.64936235  0.14809235     1.25410
Ni758      Ni  0.39682483  0.61786637  0.11407445     1.25360
C759        C  0.43405367  0.60686615  0.15320988     0.87980
C760        C  0.36251560  0.66127688  0.10875161     0.87910
C761        C  0.36215076  0.60882542  0.15565765     0.87940
C762        C  0.43336398  0.65778495  0.10597544     0.88110
O763        O  0.62984555  0.42678864  0.14004578    -0.74200
O764        O  0.66081276  0.37062637  0.10103986    -0.74230
O765        O  0.66457139  0.42339612  0.10016629    -0.74280
O766        O  0.62620607  0.37407163  0.14063879    -0.74330
O767        O  0.59363906  0.37486408  0.11151608    -0.74270
O768        O  0.63058760  0.42692608  0.07284018    -0.74240
O769        O  0.62858757  0.37360097  0.07175349    -0.74220
O770        O  0.59551272  0.42789558  0.11300028    -0.74280
Ni771      Ni  0.64652471  0.39865891  0.12141761     1.25410
Ni772      Ni  0.61087402  0.40095283  0.09121134     1.25360
C773        C  0.60741313  0.43643708  0.13323830     0.87980
C774        C  0.64987907  0.36260058  0.08015627     0.87910
C775        C  0.65366144  0.43382668  0.08021868     0.87940
C776        C  0.60395757  0.36582762  0.13240970     0.88110
O777        O  0.63282545  0.60398907  0.91424084    -0.74200
O778        O  0.59300098  0.63974235  0.86165516    -0.74230
O779        O  0.63281839  0.60382185  0.86159968    -0.74280
O780        O  0.59318895  0.63959074  0.91434463    -0.74330
O781        O  0.62362610  0.67077907  0.91503351    -0.74270
O782        O  0.66214846  0.63588434  0.86059301    -0.74240
O783        O  0.62225676  0.67185717  0.86197382    -0.74220
O784        O  0.66332078  0.63504625  0.91329944    -0.74280
Ni785      Ni  0.61192175  0.62067928  0.88788160     1.25410
Ni786      Ni  0.64385765  0.65459526  0.88763106     1.25360
C787        C  0.65439274  0.61370667  0.92270171     0.87980
C788        C  0.60089903  0.66186029  0.85322882     0.87910
C789        C  0.65410903  0.61372482  0.85251078     0.87940
C790        C  0.60241413  0.66057584  0.92396434     0.88110
O791        O  0.83414175  0.59576979  0.12075452    -0.74200
O792        O  0.89052604  0.63194164  0.15462385    -0.74230
O793        O  0.83717384  0.63086625  0.15998499    -0.74280
O794        O  0.88741638  0.59671564  0.11606220    -0.74330
O795        O  0.88494049  0.62947445  0.08754944    -0.74270
O796        O  0.83297581  0.66286916  0.13075166    -0.74240
O797        O  0.88639483  0.66471248  0.12633883    -0.74220
O798        O  0.83127487  0.62818626  0.09186977    -0.74280
Ni799      Ni  0.86244573  0.61266584  0.13890782     1.25410
Ni800      Ni  0.85878006  0.64745468  0.10810349     1.25360
C801        C  0.82329960  0.60628404  0.10074422     0.87980
C802        C  0.89783110  0.65424429  0.14595559     0.87910
C803        C  0.82643480  0.65225087  0.15234778     0.87940
C804        C  0.89477216  0.60750246  0.09484832     0.88110
O805        O  0.59625613  0.82449085  0.12896865    -0.74200
O806        O  0.62950226  0.87897915  0.16743347    -0.74230
O807        O  0.59332943  0.87704001  0.12967506    -0.74280
O808        O  0.63214344  0.82572273  0.16785880    -0.74330
O809        O  0.66566405  0.82795973  0.13972048    -0.74270
O810        O  0.62476515  0.87698769  0.09918995    -0.74240
O811        O  0.66082283  0.88098397  0.13690948    -0.74220
O812        O  0.62991776  0.82442149  0.10083141    -0.74280
Ni813      Ni  0.61174131  0.85140141  0.14962185     1.25410
Ni814      Ni  0.64654441  0.85256613  0.11816844     1.25360
C815        C  0.60757381  0.81575950  0.10836980     0.87980
C816        C  0.64979594  0.88998125  0.15743180     0.87910
C817        C  0.60256680  0.88551638  0.10820203     0.87940
C818        C  0.65507502  0.81818447  0.16018666     0.88110
O819        O  0.77014375  0.54475720  0.69326482    -0.80660
O820        O  0.73089986  0.45818957  0.77131652    -0.65350
O821        O  0.73722391  0.51938056  0.72910415    -1.11960
C822        C  0.79511389  0.54825295  0.79579344     1.06220
O823        O  0.73042652  0.48069589  0.80802707    -0.78560
O824        O  0.73353572  0.53208106  0.80853273    -0.66140
Ni825      Ni  0.74539590  0.51693861  0.69313194     1.34870
C826        C  0.72515134  0.54952044  0.79298879     0.84960
O827        O  0.70832658  0.47309012  0.72711310    -0.79100
O828        O  0.72214683  0.48828861  0.68860185    -0.89380
C829        C  0.72379566  0.46096346  0.79484557     0.84530
O830        O  0.77453476  0.49376297  0.69741069    -0.67580
O831        O  0.78735451  0.52914947  0.80957218    -0.86870
C832        C  0.77637226  0.47283390  0.71043905     0.85360
C833        C  0.70889862  0.47249046  0.70239104     1.06930
H834        H  0.77837748  0.49484992  0.76593560     0.38730
O835        O  0.76182745  0.50376021  0.76954995    -1.09520
O836        O  0.73417646  0.55268276  0.77005992    -0.66180
Ni837      Ni  0.76258531  0.53594559  0.75073738     1.26350
O838        O  0.76144275  0.46776756  0.72982809    -0.66400
O839        O  0.78767255  0.55210384  0.77260555    -0.78700
C840        C  0.77472988  0.56426904  0.70752905     0.84750
O841        O  0.76433515  0.56665738  0.72978336    -0.65870
Ni842      Ni  0.75907600  0.50469162  0.80651963     1.27450
Ni843      Ni  0.73474852  0.48788862  0.74896703     1.26060
H844        H  0.72047083  0.52856404  0.73048070     0.39290
O845        O  0.99276494  0.04560287  0.55473681    -0.80660
O846        O  0.01610751  0.95638968  0.47920311    -0.65350
O847        O  0.02108266  0.01956547  0.51645562    -1.11960
C848        C  0.95384097  0.04765015  0.45744677     1.06220
O849        O  0.01662792  0.97854828  0.44217132    -0.78560
O850        O  0.01021515  0.03018395  0.43651043    -0.66140
Ni851      Ni  0.02206212  0.02165283  0.55296538     1.34870
C852        C  0.02276399  0.04702545  0.44953045     0.84960
O853        O  0.04605726  0.97048844  0.51961098    -0.79100
O854        O  0.05109099  0.99756001  0.55365313    -0.89380
C855        C  0.02444001  0.95940560  0.45614798     0.84530
O856        O  0.99817635  0.99408988  0.56056187    -0.67580
O857        O  0.95742213  0.02628324  0.44517312    -0.86870
C858        C  0.98699473  0.97665473  0.54716473     0.85360
C859        C  0.05681851  0.97678229  0.54113974     1.06930
H860        H  0.97335714  0.99732289  0.48778628     0.38730
O861        O  0.98986216  0.00426625  0.48147698    -1.09520
O862        O  0.01972470  0.05024222  0.47390770    -0.66180
Ni863      Ni  0.99349081  0.03693253  0.49782643     1.26350
O864        O  0.99201732  0.97264791  0.52323421    -0.66400
O865        O  0.96634954  0.05391163  0.47790928    -0.78700
C866        C  0.98659517  0.06503836  0.54054314     0.84750
O867        O  0.99609616  0.06775301  0.51791692    -0.65870
Ni868      Ni  0.98701329  0.00225582  0.44499304     1.27450
Ni869      Ni  0.01809208  0.98700492  0.49973558     1.26060
H870        H  0.03774302  0.02669783  0.51078846     0.39290
C871        C  0.51666695  0.06239759  0.70155146     0.03360
C872        C  0.52727392  0.04044725  0.68889682    -0.12790
C873        C  0.54987230  0.02756704  0.69838666     0.00860
C874        C  0.56189890  0.03683284  0.72106951    -0.11320
C875        C  0.55159845  0.05874537  0.73417864     0.03350
C876        C  0.52898920  0.07147621  0.72416487    -0.10740
H877        H  0.51830663  0.03373787  0.67110164     0.08940
H878        H  0.57969020  0.02734368  0.72823321     0.06470
H879        H  0.52131381  0.08884416  0.73360058     0.06320
C880        C  0.74230052  0.06053699  0.53918126     0.03360
C881        C  0.73022944  0.03810353  0.54924499    -0.12790
C882        C  0.70693837  0.02829815  0.53827848     0.00860
C883        C  0.69706972  0.03982418  0.51545858    -0.11320
C884        C  0.70946833  0.06158323  0.50447729     0.03350
C885        C  0.73182698  0.07207134  0.51657330    -0.10740
H886        H  0.73881973  0.02840240  0.56596625     0.08940
H887        H  0.67903375  0.03268446  0.50682067     0.06470
H888        H  0.74070353  0.08949281  0.50860075     0.06320
C889        C  0.55767667  0.20278039  0.50720015     0.03360
C890        C  0.56964794  0.22548568  0.51645770    -0.12790
C891        C  0.56046310  0.23789839  0.53891535     0.00860
C892        C  0.53755349  0.22874587  0.55114183    -0.11320
C893        C  0.52439395  0.20664861  0.54187449     0.03350
C894        C  0.53484957  0.19351411  0.51992270    -0.10740
H895        H  0.58644175  0.23352417  0.50621671     0.08940
H896        H  0.53015423  0.23874572  0.56821889     0.06470
H897        H  0.52583612  0.17570001  0.51325995     0.06320
O898        O  0.63909082  0.09922465  0.40638432    -0.74200
O899        O  0.59866958  0.13568452  0.35432705    -0.74230
O900        O  0.63895231  0.10027935  0.35372380    -0.74280
O901        O  0.59858641  0.13438884  0.40712179    -0.74330
O902        O  0.62796889  0.16650732  0.40778918    -0.74270
O903        O  0.66835920  0.13225380  0.35418309    -0.74240
O904        O  0.62793922  0.16777602  0.35487414    -0.74220
O905        O  0.66798994  0.13180386  0.40706321    -0.74280
Ni906      Ni  0.61779108  0.11625237  0.38029706     1.25410
Ni907      Ni  0.64907632  0.15075140  0.38086197     1.25360
C908        C  0.65980604  0.10990745  0.41570441     0.87980
C909        C  0.60656962  0.15792403  0.34611887     0.87910
C910        C  0.66044102  0.11033185  0.34530460     0.87940
C911        C  0.60710251  0.15567608  0.41680406     0.88110
O912        O  0.42549986  0.10856891  0.62585500    -0.74200
O913        O  0.37062162  0.14494969  0.58862876    -0.74230
O914        O  0.42427407  0.14562276  0.58816065    -0.74280
O915        O  0.37240579  0.10727244  0.62516817    -0.74330
O916        O  0.37065201  0.13789679  0.65578599    -0.74270
O917        O  0.42414230  0.17632163  0.61876199    -0.74240
O918        O  0.36994481  0.17571838  0.61907240    -0.74220
O919        O  0.42430074  0.13949790  0.65626420    -0.74280
Ni920      Ni  0.39825618  0.12559330  0.60584032     1.25410
Ni921      Ni  0.39718699  0.15853083  0.63854294     1.25360
C922        C  0.43373611  0.11807680  0.64734516     0.87980
C923        C  0.36093227  0.16621938  0.59798306     0.87910
C924        C  0.43330541  0.16681815  0.59743624     0.87940
C925        C  0.36302475  0.11597242  0.64651598     0.88110
C926        C  0.71311746  0.24056252  0.70852308     0.03360
C927        C  0.73400579  0.22742636  0.69601146    -0.12790
C928        C  0.74390877  0.20363775  0.70573796     0.00860
C929        C  0.73298008  0.19324719  0.72853537    -0.11320
C930        C  0.71232120  0.20645380  0.74144642     0.03350
C931        C  0.70304158  0.23039417  0.73167475    -0.10740
H932        H  0.74183992  0.23514511  0.67802365     0.08940
H933        H  0.73949094  0.17420411  0.73530562     0.06470
H934        H  0.68708522  0.24064498  0.74156505     0.06320
O935        O  0.63646982  0.32850386  0.65370548    -0.74200
O936        O  0.60648299  0.38114057  0.60936849    -0.74230
O937        O  0.60463228  0.32882221  0.61136149    -0.74280
O938        O  0.63729634  0.38105917  0.65200710    -0.74330
O939        O  0.67261974  0.37965631  0.62603875    -0.74270
O940        O  0.64045295  0.32560037  0.58609171    -0.74240
O941        O  0.64189773  0.37821062  0.58339750    -0.74220
O942        O  0.67234462  0.32733071  0.62836770    -0.74280
Ni943      Ni  0.61993630  0.35489809  0.63252600     1.25410
Ni944      Ni  0.65811594  0.35256058  0.60505328     1.25360
C945        C  0.65978070  0.31978037  0.64853633     0.87980
C946        C  0.61938582  0.38816157  0.58912344     0.87910
C947        C  0.61679507  0.31885830  0.59192387     0.87940
C948        C  0.66020175  0.38921762  0.64567965     0.88110
O949        O  0.62335570  0.93672341  0.65021890    -0.74200
O950        O  0.66304818  0.88468171  0.61359453    -0.74230
O951        O  0.66066373  0.93768187  0.61263677    -0.74280
O952        O  0.62591161  0.88434440  0.65108930    -0.74330
O953        O  0.59427437  0.88287689  0.62095546    -0.74270
O954        O  0.62981778  0.93583010  0.58181894    -0.74240
O955        O  0.63132359  0.88296384  0.58369922    -0.74220
O956        O  0.59226312  0.93607323  0.61953445    -0.74280
Ni957      Ni  0.64440133  0.91096213  0.63289331     1.25410
Ni958      Ni  0.61076058  0.90945428  0.60040271     1.25360
C959        C  0.60133064  0.94494523  0.64092434     0.87980
C960        C  0.65323954  0.87455402  0.59310994     0.87910
C961        C  0.65103395  0.94561314  0.59099779     0.87940
C962        C  0.60461609  0.87463627  0.64218228     0.88110
O963        O  0.83398434  0.16483203  0.62656275    -0.74200
O964        O  0.88987400  0.13707555  0.58477938    -0.74230
O965        O  0.83648323  0.13227683  0.58541367    -0.74280
O966        O  0.88757167  0.16919982  0.62591234    -0.74330
O967        O  0.89213658  0.13438882  0.65154727    -0.74270
O968        O  0.83812573  0.09932550  0.61379877    -0.74240
O969        O  0.89157666  0.10187718  0.61041912    -0.74220
O970        O  0.83873264  0.13201989  0.65481261    -0.74280
Ni971      Ni  0.86181331  0.15208442  0.60472646     1.25410
Ni972      Ni  0.86529595  0.11566064  0.63360614     1.25360
C973        C  0.82723391  0.15317967  0.64753095     0.87980
C974        C  0.89974802  0.11480836  0.59069784     0.87910
C975        C  0.82851217  0.10995241  0.59331165     0.87940
C976        C  0.89883894  0.15755382  0.64505466     0.88110
O977        O  0.63233787  0.16358305  0.83031699    -0.74200
O978        O  0.59418971  0.12699281  0.88288363    -0.74230
O979        O  0.63153215  0.16439980  0.88288930    -0.74280
O980        O  0.59492891  0.12629155  0.83037437    -0.74330
O981        O  0.62738240  0.09639312  0.82985942    -0.74270
O982        O  0.66245010  0.13306977  0.88419986    -0.74240
O983        O  0.62539652  0.09589680  0.88251506    -0.74220
O984        O  0.66464749  0.13356212  0.83198192    -0.74280
Ni985      Ni  0.61209752  0.14642230  0.85657036     1.25410
Ni986      Ni  0.64605154  0.11360025  0.85716982     1.25360
C987        C  0.65482535  0.15467579  0.82266315     0.87980
C988        C  0.60372805  0.10542446  0.89152734     0.87910
C989        C  0.65298261  0.15487212  0.89238273     0.87940
C990        C  0.60535087  0.10536205  0.82115126     0.88110
C991        C  0.05687517  0.74668351  0.55900638     0.03360
C992        C  0.03388554  0.73689953  0.57077094    -0.12790
C993        C  0.02039796  0.71573374  0.55979565     0.00860
C994        C  0.03092808  0.70382598  0.53733334    -0.11320
C995        C  0.05421201  0.71302757  0.52571508     0.03350
C996        C  0.06612781  0.73526233  0.53595205    -0.10740
H997        H  0.02711560  0.74514188  0.58898120     0.08940
H998        H  0.02130118  0.68699236  0.52916782     0.06470
H999        H  0.08307939  0.74348058  0.52612724     0.06320
O1000       O  0.16152738  0.61887166  0.43430322    -0.74200
O1001       O  0.12672664  0.66008176  0.38248500    -0.74230
O1002       O  0.12750179  0.65998067  0.43505371    -0.74280
O1003       O  0.15995995  0.61860489  0.38150499    -0.74330
O1004       O  0.12714660  0.58998166  0.38463795    -0.74270
O1005       O  0.09230250  0.63417663  0.43403868    -0.74240
O1006       O  0.09385571  0.63142117  0.38140074    -0.74220
O1007       O  0.12643151  0.59310424  0.43738176    -0.74280
Ni1008     Ni  0.14518449  0.64031951  0.40834363     1.25410
Ni1009     Ni  0.10869040  0.61118014  0.40943955     1.25360
C1010       C  0.14961582  0.59966290  0.44488146     0.87980
C1011       C  0.10503115  0.65209917  0.37281276     0.87910
C1012       C  0.10426548  0.65405752  0.44302784     0.87940
C1013       C  0.14870281  0.59758233  0.37419081     0.88110
C1014       C  0.21092481  0.74272179  0.70675354     0.03360
C1015       C  0.19794431  0.73219364  0.72856891    -0.12790
C1016       C  0.20584504  0.70801204  0.73916267     0.00860
C1017       C  0.22744441  0.69461160  0.72806153    -0.11320
C1018       C  0.24140431  0.70518529  0.70703745     0.03350
C1019       C  0.23278854  0.72908104  0.69631261    -0.10740
H1020       H  0.18146057  0.74273046  0.73722478     0.08940
H1021       H  0.23276103  0.67533555  0.73511038     0.06470
H1022       H  0.24274751  0.73665983  0.67932681     0.06320
C1023       C  0.23703480  0.55047912  0.56478255     0.03360
C1024       C  0.22375067  0.56176790  0.54349023    -0.12790
C1025       C  0.20133764  0.54991904  0.53270689     0.00860
C1026       C  0.19208746  0.52665005  0.54377494    -0.11320
C1027       C  0.20493907  0.51515304  0.56516607     0.03350
C1028       C  0.22766359  0.52690573  0.57514495    -0.10740
H1029       H  0.23044332  0.58020107  0.53569915     0.08940
H1030       H  0.17469286  0.51753772  0.53585016     0.06470
H1031       H  0.23812645  0.51749773  0.59099129     0.06320
O1032       O  0.33774280  0.62722527  0.66942639    -0.74200
O1033       O  0.39100778  0.58902850  0.63096895    -0.74230
O1034       O  0.39148249  0.62507693  0.66936822    -0.74280
O1035       O  0.33698680  0.59055925  0.63204501    -0.74330
O1036       O  0.33749005  0.62131173  0.60133980    -0.74270
O1037       O  0.39226075  0.65620388  0.63901579    -0.74240
O1038       O  0.39116962  0.62046971  0.60104736    -0.74220
O1039       O  0.33829451  0.65793503  0.63866991    -0.74280
Ni1040     Ni  0.36432847  0.60680790  0.65151441     1.25410
Ni1041     Ni  0.36483307  0.64011590  0.61900592     1.25360
C1042       C  0.32876900  0.64865253  0.65972855     0.87980
C1043       C  0.40012978  0.59877837  0.60975611     0.87910
C1044       C  0.40116505  0.64606998  0.66013814     0.87940
C1045       C  0.32781410  0.60037478  0.61099106     0.88110
C1046       C  0.04031725  0.52055460  0.70156081     0.03360
C1047       C  0.05293577  0.53079139  0.72363897    -0.12790
C1048       C  0.04451326  0.55457798  0.73468295     0.00860
C1049       C  0.02318868  0.56812808  0.72339127    -0.11320
C1050       C  0.00969168  0.55810591  0.70194972     0.03350
C1051       C  0.01822108  0.53408859  0.69130766    -0.10740
H1052       H  0.06956642  0.52035725  0.73206168     0.08940
H1053       H  0.01751370  0.58709606  0.73094081     0.06470
H1054       H  0.00754095  0.52579810  0.67519233     0.06320
O1055       O  0.13270709  0.41975025  0.60162435    -0.74200
O1056       O  0.08670039  0.36999609  0.63236183    -0.74230
O1057       O  0.08836630  0.42283998  0.63133751    -0.74280
O1058       O  0.13166065  0.36691729  0.60335326    -0.74330
O1059       O  0.15769693  0.36861498  0.63819059    -0.74270
O1060       O  0.11178347  0.42073324  0.66788008    -0.74240
O1061       O  0.11250363  0.36776690  0.66736939    -0.74220
O1062       O  0.15620515  0.42155154  0.63812691    -0.74280
Ni1063     Ni  0.10900575  0.39483019  0.61587324     1.25410
Ni1064     Ni  0.13543396  0.39461719  0.65417919     1.25360
C1065       C  0.15165019  0.42929661  0.61482456     0.87980
C1066       C  0.09182647  0.36074285  0.65488765     0.87910
C1067       C  0.09285581  0.43076843  0.65454230     0.87940
C1068       C  0.15213615  0.35901160  0.61600328     0.88110
O1069       O  0.91730755  0.65168990  0.60006289    -0.74200
O1070       O  0.86275928  0.61746855  0.63803093    -0.74230
O1071       O  0.86376736  0.65497980  0.60127563    -0.74280
O1072       O  0.91590860  0.61402851  0.63602432    -0.74330
O1073       O  0.91793772  0.64351180  0.66769925    -0.74270
O1074       O  0.86566278  0.68564352  0.63172061    -0.74240
O1075       O  0.86411626  0.64790823  0.66886496    -0.74220
O1076       O  0.91954807  0.68188665  0.63105961    -0.74280
Ni1077     Ni  0.88973951  0.63356481  0.61777716     1.25410
Ni1078     Ni  0.89187026  0.66588987  0.65098277     1.25360
C1079       C  0.92797549  0.67201023  0.60970092     0.87980
C1080       C  0.85475009  0.62673139  0.65980216     0.87910
C1081       C  0.85611049  0.67702166  0.61035994     0.87940
C1082       C  0.92577579  0.62194019  0.65735080     0.88110
O1083       O  0.13911726  0.83646781  0.59331674    -0.74200
O1084       O  0.18050699  0.89129456  0.62240289    -0.74230
O1085       O  0.17787507  0.83854209  0.62936624    -0.74280
O1086       O  0.14159892  0.88901749  0.58628287    -0.74330
O1087       O  0.11223435  0.89509394  0.61811693    -0.74270
O1088       O  0.14656237  0.84338129  0.65963227    -0.74240
O1089       O  0.15066214  0.89609201  0.65396296    -0.74220
O1090       O  0.10809437  0.84305419  0.62356770    -0.74280
Ni1091     Ni  0.16091680  0.86363631  0.60672387     1.25410
Ni1092     Ni  0.12839452  0.86963147  0.63993645     1.25360
C1093       C  0.11675802  0.83082930  0.60358413     0.87980
C1094       C  0.17230456  0.90291727  0.64295917     0.87910
C1095       C  0.16752998  0.83198392  0.65117437     0.87940
C1096       C  0.12097082  0.90059197  0.59543321     0.88110
O1097       O  0.11837496  0.59774506  0.82890261    -0.74200
O1098       O  0.15374423  0.63522492  0.88213931    -0.74230
O1099       O  0.11642556  0.59852908  0.88170678    -0.74280
O1100       O  0.15579208  0.63505659  0.82969982    -0.74330
O1101       O  0.12361434  0.66511970  0.82736225    -0.74270
O1102       O  0.08572173  0.63005549  0.88139158    -0.74240
O1103       O  0.12326993  0.66698978  0.88010158    -0.74220
O1104       O  0.08606240  0.62775852  0.82866309    -0.74280
Ni1105     Ni  0.13717287  0.61552980  0.85561104     1.25410
Ni1106     Ni  0.10352609  0.64859294  0.85428106     1.25360
C1107       C  0.09632441  0.60644905  0.82005646     0.87980
C1108       C  0.14429381  0.65704561  0.89011217     0.87910
C1109       C  0.09493851  0.60861780  0.89069167     0.87940
C1110       C  0.14609724  0.65607042  0.81985669     0.88110
C1111       C  0.77299639  0.31867453  0.28445671     0.03360
C1112       C  0.78702758  0.32712985  0.26252993    -0.12790
C1113       C  0.80937745  0.31321218  0.25370272     0.00860
C1114       C  0.81743056  0.29054551  0.26696708    -0.11320
C1115       C  0.80455819  0.28258692  0.28977424     0.03350
C1116       C  0.78219713  0.29666466  0.29826027    -0.10740
H1117       H  0.78075336  0.34479444  0.25262217     0.08940
H1118       H  0.83410253  0.27926586  0.25966787     0.06470
H1119       H  0.77245448  0.29103326  0.31614084     0.06320
O1120       O  0.67475581  0.39304021  0.39341823    -0.74200
O1121       O  0.62398804  0.35959159  0.35004916    -0.74230
O1122       O  0.67688823  0.36141007  0.35142016    -0.74280
O1123       O  0.62144375  0.39058831  0.39233425    -0.74330
O1124       O  0.61983474  0.42542469  0.36629501    -0.74270
O1125       O  0.67612693  0.39594033  0.32492567    -0.74240
O1126       O  0.62230347  0.39438598  0.32395096    -0.74220
O1127       O  0.67396181  0.42753617  0.36690138    -0.74280
Ni1128     Ni  0.64930741  0.37499540  0.37273250     1.25410
Ni1129     Ni  0.64800701  0.41217968  0.34462958     1.25360
C1130       C  0.68307507  0.41567547  0.38698470     0.87980
C1131       C  0.61502074  0.37125921  0.32978694     0.87910
C1132       C  0.68546723  0.37347840  0.33141194     0.87940
C1133       C  0.61115505  0.41252844  0.38589636     0.88110
C1134       C  0.79711849  0.46434658  0.48369647     0.03360
C1135       C  0.77680610  0.45232383  0.46945836    -0.12790
C1136       C  0.76720612  0.46340713  0.44617212     0.00860
C1137       C  0.77846460  0.48666168  0.43706530    -0.11320
C1138       C  0.79930534  0.49855565  0.45031215     0.03350
C1139       C  0.80802335  0.48758508  0.47390564    -0.10740
H1140       H  0.76913705  0.43377516  0.47591057     0.08940
H1141       H  0.77145175  0.49519382  0.41911172     0.06470
H1142       H  0.82356612  0.49714679  0.48456917     0.06320
C1143       C  0.96322348  0.49322998  0.29609854     0.03360
C1144       C  0.98596350  0.48250547  0.30771529    -0.12790
C1145       C  0.99772868  0.45949531  0.29835623     0.00860
C1146       C  0.98737719  0.44788548  0.27595512    -0.11320
C1147       C  0.96572279  0.45918890  0.26277818     0.03350
C1148       C  0.95344822  0.48166844  0.27333400    -0.10740
H1149       H  0.99431104  0.49188815  0.32458071     0.08940
H1150       H  0.99550115  0.42941981  0.26935359     0.06470
H1151       H  0.93596287  0.48977891  0.26415029     0.06320
C1152       C  0.98162097  0.31112506  0.45336128     0.03360
C1153       C  0.97074240  0.28820167  0.44337128    -0.12790
C1154       C  0.94658439  0.27874900  0.45260106     0.00860
C1155       C  0.93425827  0.29115639  0.47365414    -0.11320
C1156       C  0.94502289  0.31364270  0.48474616     0.03350
C1157       C  0.96853251  0.32385156  0.47411622    -0.10740
H1158       H  0.98098762  0.27776473  0.42801655     0.08940
H1159       H  0.91588730  0.28348428  0.48115774     0.06470
H1160       H  0.97608876  0.34207867  0.48140646     0.06320
O1161       O  0.08698236  0.41364442  0.37952364    -0.74200
O1162       O  0.13809199  0.37173183  0.41649494    -0.74230
O1163       O  0.14058988  0.41153258  0.38213791    -0.74280
O1164       O  0.08457756  0.37455330  0.41478072    -0.74330
O1165       O  0.08349146  0.34649955  0.38180651    -0.74270
O1166       O  0.14238572  0.38182465  0.35059059    -0.74240
O1167       O  0.13717514  0.34232781  0.38458975    -0.74220
O1168       O  0.08904093  0.38544561  0.34664860    -0.74280
Ni1169     Ni  0.11255976  0.39391337  0.39937440     1.25410
Ni1170     Ni  0.11302869  0.36298741  0.36473632     1.25360
C1171       C  0.07969646  0.40632079  0.35685346     0.87980
C1172       C  0.14579107  0.35002928  0.40650453     0.87910
C1173       C  0.15113200  0.40254311  0.36139095     0.87940
C1174       C  0.07438897  0.35482820  0.40363177     0.88110
O1175       O  0.86648603  0.35162514  0.57948726    -0.74200
O1176       O  0.82963912  0.38709062  0.63505295    -0.74230
O1177       O  0.83073083  0.39124407  0.58216685    -0.74280
O1178       O  0.86496791  0.34686058  0.63239843    -0.74330
O1179       O  0.89799119  0.37518499  0.63549441    -0.74270
O1180       O  0.86427091  0.41896483  0.58421695    -0.74240
O1181       O  0.86259565  0.41539756  0.63716574    -0.74220
O1182       O  0.89988594  0.37937963  0.58325532    -0.74280
Ni1183     Ni  0.84676188  0.36818110  0.60722004     1.25410
Ni1184     Ni  0.88227919  0.39826618  0.61022108     1.25360
C1185       C  0.88919802  0.35992764  0.57210463     0.87980
C1186       C  0.84016078  0.40728780  0.64526920     0.87910
C1187       C  0.84225267  0.41192210  0.57419002     0.87940
C1188       C  0.88710816  0.35369397  0.64211794     0.88110
O1189       O  0.89597050  0.34780947  0.16639636    -0.74200
O1190       O  0.93727113  0.38006177  0.11311484    -0.74230
O1191       O  0.93394534  0.38459067  0.16563506    -0.74280
O1192       O  0.89881206  0.34305317  0.11409181    -0.74330
O1193       O  0.86864892  0.37485105  0.10975729    -0.74270
O1194       O  0.90231697  0.41508831  0.16188253    -0.74240
O1195       O  0.90666334  0.41149800  0.10933210    -0.74220
O1196       O  0.86462488  0.37843560  0.16137674    -0.74280
Ni1197     Ni  0.91770088  0.36277818  0.13987394     1.25410
Ni1198     Ni  0.88459116  0.39611593  0.13533864     1.25360
C1199       C  0.87341084  0.35772446  0.17247639     0.86220
C1200       C  0.92890455  0.40127899  0.10261117     0.87910
C1201       C  0.92323477  0.40621251  0.17291041     0.87940
C1202       C  0.87720772  0.35192857  0.10424445     0.88110
O1203       O  0.87876824  0.58793756  0.40657829    -0.74200
O1204       O  0.91925453  0.63938841  0.37102822    -0.74230
O1205       O  0.87977330  0.64085364  0.40608396    -0.74280
O1206       O  0.91776085  0.58635673  0.37078206    -0.74330
O1207       O  0.88805702  0.58798874  0.33886208    -0.74270
O1208       O  0.84973027  0.64174209  0.37450134    -0.74240
O1209       O  0.88940662  0.64097593  0.33934747    -0.74220
O1210       O  0.84859566  0.58888948  0.37508606    -0.74280
Ni1211     Ni  0.89993271  0.61357699  0.38973728     1.25410
Ni1212     Ni  0.86788267  0.61487928  0.35579523     1.25360
C1213       C  0.85713029  0.57983874  0.39682591     0.87980
C1214       C  0.91095994  0.64904514  0.34956321     0.87910
C1215       C  0.85872491  0.65057456  0.39586642     0.87940
C1216       C  0.90903746  0.57815021  0.34896238     0.88110
O1217       O  0.90418560  0.18626130  0.37939209    -0.74200
O1218       O  0.86984298  0.13277111  0.34141148    -0.74230
O1219       O  0.86948422  0.18568693  0.34027419    -0.74280
O1220       O  0.90471155  0.13372852  0.38098966    -0.74330
O1221       O  0.87117512  0.13374088  0.40926285    -0.74270
O1222       O  0.83615117  0.18681509  0.36876067    -0.74240
O1223       O  0.83639706  0.13379255  0.36968706    -0.74220
O1224       O  0.87135976  0.18662764  0.40848370    -0.74280
Ni1225     Ni  0.88817912  0.15952671  0.35948215     1.25410
Ni1226     Ni  0.85250661  0.16027839  0.39004741     1.25360
C1227       C  0.89349725  0.19525013  0.40010377     0.87980
C1228       C  0.84762252  0.12415319  0.34948854     0.87910
C1229       C  0.84740530  0.19533523  0.34812409     0.87940
C1230       C  0.89392880  0.12530843  0.40187208     0.88110
O1231       O  0.01588065  0.31772777  0.77816598    -0.80660
O1232       O  0.98686112  0.23082230  0.70196298    -0.65350
O1233       O  0.98676905  0.27555537  0.76054100    -1.11960
C1234       C  0.05443071  0.21657739  0.78990337     1.06220
O1235       O  0.98467451  0.19696829  0.72873077    -0.78560
O1236       O  0.99375882  0.19826559  0.78052883    -0.66140
Ni1237     Ni  0.98442724  0.31235784  0.75791961     1.34870
C1238       C  0.98634176  0.21434265  0.79786618     0.84960
O1239       O  0.95952369  0.27437964  0.71269928    -0.79100
O1240       O  0.95290883  0.31014750  0.73720268    -0.89380
C1241       C  0.97881665  0.20796518  0.70722037     0.84530
O1242       O  0.00536632  0.31608913  0.72731223    -0.67580
O1243       O  0.04623904  0.20103167  0.77238054    -0.86870
C1244       C  0.01700001  0.30027025  0.71200787     0.85360
C1245       C  0.94773230  0.29603028  0.71753696     1.06930
H1246       H  0.03178083  0.24069111  0.73785250     0.38730
O1247       O  0.01567561  0.23710462  0.74728586    -1.09520
O1248       O  0.99226047  0.23841608  0.79782662    -0.66180
Ni1249     Ni  0.01638497  0.25861906  0.77699789     1.26350
O1250       O  0.01322498  0.27571341  0.71209976    -0.66400
O1251       O  0.04534711  0.23980179  0.79305909    -0.78700
C1252       C  0.02491427  0.30635778  0.79836450     0.84750
O1253       O  0.01791298  0.28339417  0.80436375    -0.65870
Ni1254     Ni  0.01551654  0.20045765  0.75040090     1.27450
Ni1255     Ni  0.98722274  0.25491110  0.73007893     1.26060
H1256       H  0.97099296  0.27069408  0.76991987     0.39290
C1257       C  0.03007818  0.21083413  0.05680814     0.03360
C1258       C  0.04119182  0.20105380  0.03358518    -0.12790
C1259       C  0.06343842  0.21269655  0.02218348     0.00860
C1260       C  0.07392657  0.23503714  0.03348070    -0.11320
C1261       C  0.06360511  0.24500297  0.05662256     0.03350
C1262       C  0.04165926  0.23297536  0.06831467    -0.10740
H1263       H  0.03288706  0.18395526  0.02458014     0.08940
H1264       H  0.09058931  0.24464644  0.02444036     0.06470
H1265       H  0.03444414  0.24025225  0.08676321     0.06320
O1266       O  0.14448975  0.33730503  0.09079613    -0.74200
O1267       O  0.18274377  0.39140264  0.12641212    -0.74230
O1268       O  0.18088471  0.33812253  0.12915193    -0.74280
O1269       O  0.14662631  0.39042973  0.08692225    -0.74330
O1270       O  0.11519586  0.39517107  0.11706442    -0.74270
O1271       O  0.14709176  0.33965489  0.15700544    -0.74240
O1272       O  0.15067477  0.39266497  0.15606411    -0.74220
O1273       O  0.11097500  0.34259251  0.11866113    -0.74280
Ni1274     Ni  0.16489234  0.36428082  0.10723127     1.25410
Ni1275     Ni  0.12989466  0.36769535  0.13822275     1.25360
C1276       C  0.12144372  0.33103769  0.09918646     0.87980
C1277       C  0.17296335  0.40068077  0.14759299     0.87910
C1278       C  0.16913847  0.32946572  0.14944191     0.87940
C1279       C  0.12544560  0.40164704  0.09519343     0.88110
C1280       C  0.05715347  0.04115098  0.23871604     0.03360
C1281       C  0.06816730  0.01876930  0.22685293    -0.12790
C1282       C  0.05708136  0.00880619  0.20387693     0.00860
C1283       C  0.03469633  0.02130113  0.19320781    -0.11320
C1284       C  0.02377470  0.04367607  0.20476627     0.03350
C1285       C  0.03478389  0.05304079  0.22770994    -0.10740
H1286       H  0.08562886  0.00954778  0.23507966     0.08940
H1287       H  0.02622872  0.01402844  0.17540612     0.06470
H1288       H  0.02648268  0.07050279  0.23649706     0.06320
C1289       C  0.24210326  0.19942489  0.20296707     0.03360
C1290       C  0.23269786  0.22246035  0.19087289    -0.12790
C1291       C  0.21172445  0.23719088  0.20186164     0.00860
C1292       C  0.20056334  0.22864387  0.22545550    -0.11320
C1293       C  0.20927010  0.20544735  0.23751366     0.03350
C1294       C  0.23032459  0.19134821  0.22633710    -0.10740
H1295       H  0.24110283  0.22841675  0.17245766     0.08940
H1296       H  0.18493156  0.24003401  0.23453799     0.06470
H1297       H  0.23721796  0.17359054  0.23561986     0.06320
O1298       O  0.12486813  0.09587538  0.32959984    -0.74200
O1299       O  0.15533862  0.13557038  0.38359017    -0.74230
O1300       O  0.11855411  0.09776683  0.38187700    -0.74280
O1301       O  0.16081021  0.13457925  0.33139836    -0.74330
O1302       O  0.12809217  0.16377208  0.32683487    -0.74270
O1303       O  0.08689293  0.12818875  0.37754579    -0.74240
O1304       O  0.12394323  0.16615384  0.37936977    -0.74220
O1305       O  0.09195293  0.12505563  0.32574506    -0.74280
Ni1306     Ni  0.14104353  0.11490995  0.35678495     1.25410
Ni1307     Ni  0.10662280  0.14693771  0.35225208     1.25360
C1308       C  0.10329338  0.10354297  0.31906552     0.87980
C1309       C  0.14499076  0.15733347  0.39043595     0.87910
C1310       C  0.09546952  0.10688507  0.38755691     0.87940
C1311       C  0.15107112  0.15514147  0.32054319     0.88110
C1312       C  0.23890996  0.04396187  0.05814457     0.03360
C1313       C  0.22742337  0.02057155  0.06643960    -0.12790
C1314       C  0.20404859  0.01134422  0.05525665     0.00860
C1315       C  0.19278911  0.02525809  0.03434353    -0.11320
C1316       C  0.20411620  0.04858379  0.02519445     0.03350
C1317       C  0.22702916  0.05789804  0.03754037    -0.10740
H1318       H  0.23675911  0.00940599  0.08184856     0.08940
H1319       H  0.17503208  0.01803366  0.02535014     0.06470
H1320       H  0.23515185  0.07642588  0.03158053     0.06320
O1321       O  0.34040285  0.10527482  0.10369480    -0.74200
O1322       O  0.39209382  0.14153423  0.14292786    -0.74230
O1323       O  0.39384039  0.10239425  0.10814960    -0.74280
O1324       O  0.33918169  0.14459961  0.13865265    -0.74330
O1325       O  0.33539858  0.11590943  0.17105311    -0.74270
O1326       O  0.38965273  0.07299896  0.13980256    -0.74240
O1327       O  0.38925682  0.11248485  0.17510833    -0.74220
O1328       O  0.33582781  0.07674114  0.13607978    -0.74280
Ni1329     Ni  0.36657025  0.12438829  0.12223013     1.25410
Ni1330     Ni  0.36245436  0.09343498  0.15668595     1.25360
C1331       C  0.32896320  0.08546217  0.11367123     0.87980
C1332       C  0.39901085  0.13336104  0.16543600     0.87910
C1333       C  0.40076126  0.08075473  0.11878097     0.87940
C1334       C  0.32822360  0.13721989  0.15982754     0.88110
O1335       O  0.13771877  0.16660909  0.92837202    -0.74200
O1336       O  0.17037657  0.12532672  0.87501418    -0.74230
O1337       O  0.13792808  0.16756556  0.87567800    -0.74280
O1338       O  0.17081197  0.12467449  0.92790758    -0.74330
O1339       O  0.13538169  0.09922968  0.92896744    -0.74270
O1340       O  0.10377539  0.14038595  0.87437907    -0.74240
O1341       O  0.13633698  0.09805662  0.87601246    -0.74220
O1342       O  0.10234363  0.14105605  0.92677931    -0.74280
Ni1343     Ni  0.15550252  0.14694244  0.90175204     1.25410
Ni1344     Ni  0.11826600  0.11869531  0.90152525     1.25360
C1345       C  0.11441455  0.16068057  0.93612312     0.87980
C1346       C  0.15853664  0.10508686  0.86648575     0.87910
C1347       C  0.11555692  0.16092942  0.86636904     0.87940
C1348       C  0.15830035  0.10532804  0.93759055     0.88110
O1349       O  0.12361989  0.90933232  0.15952091    -0.74200
O1350       O  0.16171048  0.85869384  0.11925478    -0.74230
O1351       O  0.16157444  0.91164846  0.12269055    -0.74280
O1352       O  0.12314156  0.85668576  0.15597936    -0.74330
O1353       O  0.09202501  0.85978584  0.12560577    -0.74270
O1354       O  0.13144302  0.91335385  0.09117303    -0.74240
O1355       O  0.13073880  0.86067431  0.08859551    -0.74220
O1356       O  0.09348989  0.91292906  0.12810632    -0.74280
Ni1357     Ni  0.14360744  0.88389150  0.14042103     1.25410
Ni1358     Ni  0.11077202  0.88665432  0.10729836     1.25360
C1359       C  0.10277503  0.92007030  0.15009520     0.87980
C1360       C  0.15284624  0.85164181  0.09712025     0.87910
C1361       C  0.15262574  0.92180726  0.10162613     0.87940
C1362       C  0.10088428  0.84954512  0.14665534     0.88110
O1363       O  0.93430475  0.13423022  0.09703016    -0.74200
O1364       O  0.87920558  0.09803643  0.13362092    -0.74230
O1365       O  0.88026628  0.13581848  0.09774306    -0.74280
O1366       O  0.93271697  0.09567955  0.13301826    -0.74330
O1367       O  0.93496604  0.12636787  0.16357819    -0.74270
O1368       O  0.88013747  0.16526510  0.12952899    -0.74240
O1369       O  0.88126408  0.12731955  0.16555300    -0.74220
O1370       O  0.93391900  0.16495912  0.12757991    -0.74280
Ni1371     Ni  0.90667686  0.11491653  0.11417570     1.25410
Ni1372     Ni  0.90769841  0.14706442  0.14766581     1.25360
C1373       C  0.94320522  0.15562151  0.10633509     0.87980
C1374       C  0.87101239  0.10704111  0.15543959     0.87910
C1375       C  0.87050384  0.15627422  0.10845225     0.87940
C1376       C  0.94253421  0.10443996  0.15404432     0.88110
C1377       C  0.26418280  0.05190485  0.09924374    -0.21080
C1378       C  0.26259094  0.05407631  0.07201680    -0.09120
C1379       C  0.28374997  0.06568617  0.05858019     0.29740
C1380       C  0.30546962  0.07539906  0.07219670    -0.21080
C1381       C  0.30688850  0.07329606  0.09938515    -0.09130
C1382       C  0.28609989  0.06114329  0.11277299     0.29740
F1383       F  0.28632117  0.05920302  0.13906366    -0.19660
H1384       H  0.24811540  0.04346603  0.11025369     0.18110
H1385       H  0.32130423  0.08453311  0.06141172     0.18120
F1386       F  0.28379376  0.06719482  0.03227375    -0.19640
C1387       C  0.16690120  0.94719259  0.06247620    -0.21080
C1388       C  0.16642550  0.94410362  0.08959114    -0.09120
C1389       C  0.17825686  0.96312530  0.10515950     0.29740
C1390       C  0.19012164  0.98484113  0.09379692    -0.21080
C1391       C  0.19097564  0.98794508  0.06663138    -0.09130
C1392       C  0.17932230  0.96869133  0.05102120     0.29740
F1393       F  0.18052921  0.97017493  0.02473855    -0.19660
H1394       H  0.15796938  0.93270067  0.05011242     0.18110
H1395       H  0.19834228  0.99952537  0.10640827     0.18120
F1396       F  0.17743231  0.96130260  0.13144929    -0.19640
C1397       C  0.15373333  0.07884501  0.97825927    -0.21080
C1398       C  0.17016198  0.09034372  0.95951675    -0.09120
C1399       C  0.19777611  0.08830903  0.96268052     0.29740
C1400       C  0.20855094  0.07469536  0.98388936    -0.21080
C1401       C  0.19214961  0.06320468  0.00277564    -0.09130
C1402       C  0.16447285  0.06578012  0.99980911     0.29740
F1403       F  0.14766717  0.05661667  0.01819372    -0.19660
H1404       H  0.13242398  0.08065421  0.97664658     0.18110
H1405       H  0.22986589  0.07291956  0.98536297     0.18120
F1406       F  0.21443222  0.09903228  0.94501544    -0.19640
C1407       C  0.16697255  0.19486505  0.26039058    -0.21080
C1408       C  0.19478139  0.19451461  0.26027794    -0.09120
C1409       C  0.20814501  0.18194142  0.28092760     0.29740
C1410       C  0.19390606  0.16908749  0.30043825    -0.21080
C1411       C  0.16613543  0.16907325  0.30016088    -0.09130
C1412       C  0.15278090  0.18250513  0.28012202     0.29740
F1413       F  0.12594693  0.18275643  0.27889837    -0.19660
H1414       H  0.15609099  0.20398256  0.24464290     0.18110
H1415       H  0.20460662  0.15933199  0.31593331     0.18120
F1416       F  0.23494244  0.18227527  0.28246058    -0.19640
C1417       C  0.28445813  0.14107282  0.18189816    -0.21080
C1418       C  0.30657985  0.15325869  0.17106400    -0.09120
C1419       C  0.30721492  0.18067730  0.17013793     0.29740
C1420       C  0.28620383  0.19555667  0.18034240    -0.21080
C1421       C  0.26394561  0.18341532  0.19124517    -0.09130
C1422       C  0.26316235  0.15586440  0.19147211     0.29740
F1423       F  0.24147250  0.14309469  0.20014139    -0.19660
H1424       H  0.28330460  0.11997779  0.18223543     0.18110
H1425       H  0.28754839  0.21662573  0.18007735     0.18120
F1426       F  0.32847014  0.19308863  0.16000130    -0.19640
C1427       C  0.10778856  0.07538059  0.28014888    -0.21080
C1428       C  0.09152466  0.08691265  0.29914636    -0.09120
C1429       C  0.06444913  0.08135623  0.29962690     0.29740
C1430       C  0.05377094  0.06485164  0.28097359    -0.21080
C1431       C  0.06975067  0.05420662  0.26109891    -0.09130
C1432       C  0.09701297  0.05944753  0.26102573     0.29740
F1433       F  0.11297276  0.05055908  0.24166326    -0.19660
H1434       H  0.12877431  0.07943711  0.27963463     0.18110
H1435       H  0.03276669  0.06092713  0.28162563     0.18120
F1436       F  0.04844098  0.09153656  0.31833735    -0.19640
C1437       C  0.96132106  0.06164409  0.16780261    -0.21080
C1438       C  0.96293205  0.08895778  0.16733467    -0.09120
C1439       C  0.98435869  0.10121688  0.17916981     0.29740
C1440       C  0.00409079  0.08627506  0.19100358    -0.21080
C1441       C  0.00246852  0.05889489  0.19188340    -0.09130
C1442       C  0.98074229  0.04665821  0.18027165     0.29740
F1443       F  0.97788250  0.02038630  0.18151812    -0.19660
H1444       H  0.94472808  0.05194610  0.15890624     0.18110
H1445       H  0.02090579  0.09619840  0.19919753     0.18120
F1446       F  0.98672669  0.12756916  0.17847384    -0.19640
C1447       C  0.07745767  0.96380730  0.20426432    -0.21080
C1448       C  0.06919545  0.98603025  0.19026192    -0.09120
C1449       C  0.07209668  0.98610685  0.16301482     0.29740
C1450       C  0.08204973  0.96413993  0.15015562    -0.21080
C1451       C  0.09020244  0.94199420  0.16412499    -0.09130
C1452       C  0.08812146  0.94204201  0.19135977     0.29740
F1453       F  0.09592108  0.92088540  0.20541698    -0.19660
H1454       H  0.07537893  0.96317734  0.22518785     0.18110
H1455       H  0.08430342  0.96478964  0.12923744     0.18120
F1456       F  0.06622127  0.00774664  0.14879984    -0.19640
C1457       C  0.16350963  0.28889215  0.17578130    -0.21080
C1458       C  0.18050982  0.30662008  0.16359777    -0.09120
C1459       C  0.20792316  0.30126045  0.16378175     0.29740
C1460       C  0.21795471  0.27886290  0.17629384    -0.21080
C1461       C  0.20090982  0.26104254  0.18849512    -0.09130
C1462       C  0.17342072  0.26623629  0.18771516     0.29740
F1463       F  0.15589238  0.24891060  0.19751323    -0.19660
H1464       H  0.14229330  0.29211831  0.17529638     0.18110
H1465       H  0.23915697  0.27557854  0.17660414     0.18120
F1466       F  0.22509520  0.31784450  0.15222242    -0.19640
C1467       C  0.08007174  0.31270491  0.08069479    -0.21080
C1468       C  0.10688493  0.30945460  0.08728895    -0.09120
C1469       C  0.11885177  0.28472893  0.08492908     0.29740
C1470       C  0.10426464  0.26368678  0.07579000    -0.21080
C1471       C  0.07754075  0.26693658  0.06889196    -0.09130
C1472       C  0.06552087  0.29165424  0.07126892     0.29740
F1473       F  0.04009152  0.29558569  0.06366481    -0.19660
H1474       H  0.07050991  0.33163433  0.08263804     0.18110
H1475       H  0.11385368  0.24475576  0.07394206     0.18120
F1476       F  0.14432021  0.28072159  0.09240931    -0.19640
C1477       C  0.11665264  0.18644488  0.97676978    -0.21080
C1478       C  0.10143052  0.17603837  0.95671809    -0.09120
C1479       C  0.07371480  0.17877582  0.95761743     0.29740
C1480       C  0.06148909  0.19123123  0.97862599    -0.21080
C1481       C  0.07663155  0.20086566  0.99921830    -0.09130
C1482       C  0.10445613  0.19844397  0.99801196     0.29740
F1483       F  0.11988281  0.20637471  0.01795747    -0.19660
H1484       H  0.13799623  0.18419117  0.97659980     0.18110
H1485       H  0.04013063  0.19320981  0.97886763     0.18120
F1486       F  0.05844808  0.16945817  0.93816812    -0.19640
C1487       C  0.00628166  0.16943621  0.06862109    -0.21080
C1488       C  0.00741645  0.19691990  0.06937750    -0.09120
C1489       C  0.98665937  0.21059085  0.08193241     0.29740
C1490       C  0.96587628  0.19704680  0.09378207    -0.21080
C1491       C  0.96480542  0.16967069  0.09280756    -0.09130
C1492       C  0.98514506  0.15598731  0.07985338     0.29740
F1493       F  0.98520370  0.12951819  0.07892768    -0.19660
H1494       H  0.02205742  0.15814252  0.05966559     0.18110
H1495       H  0.95032037  0.20804903  0.10346721     0.18120
F1496       F  0.98594603  0.23706119  0.08219609    -0.19640
C1497       C  0.08578390  0.19773239  0.85399709    -0.21080
C1498       C  0.10286144  0.17740583  0.84644191    -0.09120
C1499       C  0.10630825  0.17201428  0.81995011     0.29740
C1500       C  0.09185024  0.18611645  0.80130814    -0.21080
C1501       C  0.07385508  0.20589367  0.80882595    -0.09130
C1502       C  0.07131172  0.21183920  0.83543549     0.29740
F1503       F  0.05302243  0.22951649  0.84376569    -0.19660
H1504       H  0.08277220  0.20190344  0.87441377     0.18110
H1505       H  0.09393870  0.18089479  0.78103649     0.18120
F1506       F  0.12286199  0.15246127  0.81221852    -0.19640
C1507       C  0.89134165  0.33441052  0.68655706    -0.21080
C1508       C  0.90060262  0.33641192  0.66091439    -0.09120
C1509       C  0.92363392  0.32272424  0.65361427     0.29740
C1510       C  0.93757512  0.30776562  0.67189599    -0.21080
C1511       C  0.92924188  0.30685485  0.69794234    -0.09130
C1512       C  0.90576804  0.32006431  0.70510320     0.29740
F1513       F  0.89716627  0.31956515  0.73008002    -0.19660
H1514       H  0.87355292  0.34484605  0.69243417     0.18110
H1515       H  0.95587016  0.29819886  0.66604156     0.18120
F1516       F  0.93301672  0.32442629  0.62894949    -0.19640
C1517       C  0.90309551  0.32789664  0.50721574    -0.21080
C1518       C  0.93096866  0.32641214  0.50693576    -0.09120
C1519       C  0.94486029  0.33591570  0.52853096     0.29740
C1520       C  0.93111118  0.34661353  0.54969517    -0.21080
C1521       C  0.90330018  0.34753696  0.55007732    -0.09130
C1522       C  0.88938155  0.33804092  0.52861106     0.29740
F1523       F  0.86255133  0.33939560  0.52788084    -0.19660
H1524       H  0.89179025  0.32128146  0.49072141     0.18110
H1525       H  0.94224319  0.35383986  0.56605852     0.18120
F1526       F  0.97164301  0.33407357  0.52966662    -0.19640
C1527       C  0.92045288  0.23743298  0.45373214    -0.21080
C1528       C  0.93344410  0.25682794  0.43930511    -0.09120
C1529       C  0.93275730  0.25576947  0.41198926     0.29740
C1530       C  0.91993956  0.23545073  0.39955123    -0.21080
C1531       C  0.90688180  0.21626493  0.41395499    -0.09130
C1532       C  0.90700875  0.21742928  0.44117882     0.29740
F1533       F  0.89477896  0.19890468  0.45559532    -0.19660
H1534       H  0.92079374  0.23769182  0.47474901     0.18110
H1535       H  0.91963432  0.23507126  0.37851890     0.18120
F1536       F  0.94353208  0.27489388  0.39721062    -0.19640
C1537       C  0.00881358  0.32102667  0.41368854    -0.21080
C1538       C  0.00583235  0.32202491  0.44090948    -0.09120
C1539       C  0.02624381  0.33300383  0.45568434     0.29740
C1540       C  0.04863339  0.34318401  0.44340430    -0.21080
C1541       C  0.05147646  0.34219363  0.41624280    -0.09130
C1542       C  0.03144119  0.33070790  0.40148710     0.29740
F1543       F  0.03313329  0.32983303  0.37519576    -0.19660
H1544       H  0.99333328  0.31310218  0.40166546     0.18110
H1545       H  0.06391680  0.35177456  0.45522189     0.18120
F1546       F  0.02494107  0.33338572  0.48199888    -0.19640
C1547       C  0.94719101  0.51558492  0.33644365    -0.21080
C1548       C  0.94907790  0.51531543  0.30914175    -0.09120
C1549       C  0.93756056  0.53613227  0.29505981     0.29740
C1550       C  0.92439955  0.55645396  0.30811503    -0.21080
C1551       C  0.92308056  0.55677489  0.33536342    -0.09130
C1552       C  0.93469864  0.53618292  0.34943767     0.29740
F1553       F  0.93319721  0.53548071  0.37575388    -0.19660
H1554       H  0.95519636  0.49960330  0.34788585     0.18110
H1555       H  0.91567149  0.57226732  0.29693084     0.18120
F1556       F  0.93967602  0.53735893  0.26881980    -0.19640
C1557       C  0.92759403  0.44479112  0.23528339    -0.21080
C1558       C  0.95507476  0.44654580  0.23894778    -0.09120
C1559       C  0.97208840  0.43554913  0.21998964     0.29740
C1560       C  0.96173107  0.42240117  0.19853777    -0.21080
C1561       C  0.93430470  0.42067796  0.19508565    -0.09130
C1562       C  0.91729745  0.43224656  0.21353351     0.29740
F1563       F  0.89063445  0.43041048  0.21116190    -0.19660
H1564       H  0.91394018  0.45257101  0.24961397     0.18110
H1565       H  0.97515301  0.41385863  0.18440361     0.18120
F1566       F  0.99873394  0.43790844  0.22186015    -0.19640
C1567       C  0.01856602  0.44618208  0.34051605    -0.21080
C1568       C  0.01963135  0.44685245  0.31318850    -0.09120
C1569       C  0.04141629  0.43510310  0.30052845     0.29740
C1570       C  0.06111266  0.42235305  0.31493351    -0.21080
C1571       C  0.05983763  0.42158413  0.34217534    -0.09130
C1572       C  0.03854898  0.43391543  0.35490182     0.29740
F1573       F  0.03632604  0.43297155  0.38115694    -0.19660
H1574       H  0.00185231  0.45462532  0.35082861     0.18110
H1575       H  0.07748837  0.41309408  0.30476463     0.18120
F1576       F  0.04394673  0.43624508  0.27430888    -0.19640
C1577       C  0.83564308  0.45247214  0.51257201    -0.21080
C1578       C  0.80820584  0.45195037  0.50782586    -0.09120
C1579       C  0.79193238  0.43919313  0.52608097     0.29740
C1580       C  0.80302867  0.42666034  0.54781767    -0.21080
C1581       C  0.83045325  0.42706916  0.55231372    -0.09130
C1582       C  0.84662225  0.44045307  0.53456760     0.29740
F1583       F  0.87327147  0.44084530  0.53771059    -0.19660
H1584       H  0.84888466  0.46162309  0.49883063     0.18110
H1585       H  0.79009165  0.41663307  0.56124096     0.18120
F1586       F  0.76524343  0.43914029  0.52325990    -0.19640
C1587       C  0.84145925  0.52097132  0.43853561    -0.21080
C1588       C  0.81364128  0.52079665  0.43813228    -0.09120
C1589       C  0.80019159  0.54083711  0.42446342     0.29740
C1590       C  0.81437435  0.55979494  0.41075878    -0.21080
C1591       C  0.84214002  0.55963730  0.41100580    -0.09130
C1592       C  0.85556188  0.54022874  0.42536906     0.29740
F1593       F  0.88241418  0.53922205  0.42586770    -0.19660
H1594       H  0.85244557  0.50566459  0.44843759     0.18110
H1595       H  0.80363524  0.57489186  0.40028702     0.18120
F1596       F  0.77336704  0.54242445  0.42465291    -0.19640
C1597       C  0.72561417  0.43933593  0.38952646    -0.21080
C1598       C  0.70416811  0.42793064  0.40236297    -0.09120
C1599       C  0.70373110  0.42757792  0.42963905     0.29740
C1600       C  0.72420206  0.43907157  0.44375718    -0.21080
C1601       C  0.74581719  0.45057488  0.43096214    -0.09130
C1602       C  0.74646854  0.45006574  0.40353675     0.29740
F1603       F  0.76766064  0.45904758  0.39012404    -0.19660
H1604       H  0.72662281  0.43919978  0.36850899     0.18110
H1605       H  0.72294034  0.43927354  0.46474397     0.18120
F1606       F  0.68315312  0.41677979  0.44261018    -0.19640
C1607       C  0.79812150  0.24192930  0.31648490    -0.21080
C1608       C  0.81521976  0.26027607  0.30518664    -0.09120
C1609       C  0.84268687  0.25725675  0.30891263     0.29740
C1610       C  0.85273242  0.23586246  0.32257958    -0.21080
C1611       C  0.83574056  0.21742604  0.33357835    -0.09130
C1612       C  0.80825267  0.22078551  0.33080842     0.29740
F1613       F  0.79128317  0.20329487  0.34125464    -0.19660
H1614       H  0.77691755  0.24376413  0.31394015     0.18110
H1615       H  0.87395341  0.23402502  0.32510497     0.18120
F1616       F  0.85989616  0.27540441  0.30008767    -0.19640
C1617       C  0.70560185  0.33341475  0.31317194    -0.21080
C1618       C  0.70632068  0.36060534  0.31598977    -0.09120
C1619       C  0.72803202  0.37437863  0.30619725     0.29740
C1620       C  0.74949052  0.36074963  0.29526338    -0.21080
C1621       C  0.74932969  0.33331982  0.29367501    -0.09130
C1622       C  0.72671195  0.31988020  0.30190177     0.29740
F1623       F  0.72507078  0.29360320  0.29924389    -0.19660
H1624       H  0.68875314  0.32253548  0.32016811     0.18110
H1625       H  0.76667244  0.37155458  0.28904001     0.18120
F1626       F  0.72927617  0.40068960  0.30873494    -0.19640
C1627       C  0.85334793  0.32305399  0.23401628    -0.21080
C1628       C  0.82559329  0.32332633  0.23193798    -0.09120
C1629       C  0.81382779  0.33417109  0.20957233     0.29740
C1630       C  0.82955758  0.34530658  0.19026290    -0.21080
C1631       C  0.85721249  0.34522836  0.19259179    -0.09130
C1632       C  0.86905845  0.33366128  0.21444742     0.29740
F1633       F  0.89573810  0.33364333  0.21745638    -0.19660
H1634       H  0.86293541  0.31521394  0.25117286     0.18110
H1635       H  0.82013374  0.35378322  0.17330364     0.18120
F1636       F  0.78722179  0.33366644  0.20613959    -0.19640
C1637       C  0.08138342  0.32147513  0.68206326    -0.21080
C1638       C  0.07275066  0.34275746  0.66692342    -0.09120
C1639       C  0.04542848  0.34767852  0.66433152     0.29740
C1640       C  0.02724049  0.33251157  0.67786251    -0.21080
C1641       C  0.03585532  0.31179511  0.69363858    -0.09130
C1642       C  0.06301233  0.30581721  0.69509880     0.29740
F1643       F  0.07181651  0.28608200  0.71055773    -0.19660
H1644       H  0.10233070  0.31731418  0.68417101     0.18110
H1645       H  0.00638361  0.33759221  0.67687566     0.18120
F1646       F  0.03635693  0.36832458  0.65021953    -0.19640
C1647       C  0.96944701  0.58721257  0.70674118    -0.21080
C1648       C  0.98736666  0.57355975  0.69049460    -0.09120
C1649       C  0.98466053  0.57624105  0.66343290     0.29740
C1650       C  0.96449909  0.59193247  0.65306591    -0.21080
C1651       C  0.94694412  0.60582027  0.66928964    -0.09130
C1652       C  0.94961682  0.60341787  0.69629690     0.29740
F1653       F  0.93270338  0.61614587  0.71255128    -0.19660
H1654       H  0.97079603  0.58536078  0.72764436     0.18110
H1655       H  0.96298708  0.59372027  0.63215540     0.18120
F1656       F  0.00214088  0.56468451  0.64690588    -0.19640
C1657       C  0.06605079  0.47225537  0.65057303    -0.21080
C1658       C  0.07661080  0.45218353  0.66618648    -0.09120
C1659       C  0.07311018  0.45377381  0.69327747     0.29740
C1660       C  0.06031315  0.47540241  0.70443854    -0.21080
C1661       C  0.05094417  0.49622170  0.68901017    -0.09130
C1662       C  0.05357456  0.49415610  0.66177576     0.29740
F1663       F  0.04561820  0.51396197  0.64597891    -0.19660
H1664       H  0.06860750  0.47161907  0.62969821     0.18110
H1665       H  0.05811033  0.47602998  0.72534640     0.18120
F1666       F  0.08220367  0.43444436  0.70909109    -0.19640
C1667       C  0.04297520  0.57870043  0.77699585    -0.21080
C1668       C  0.05804494  0.56604372  0.75760476    -0.09120
C1669       C  0.08584061  0.56594444  0.75971917     0.29740
C1670       C  0.09804300  0.57847056  0.78052829    -0.21080
C1671       C  0.08293258  0.59190148  0.79924609    -0.09130
C1672       C  0.05522122  0.59175679  0.79741003     0.29740
F1673       F  0.03994270  0.60399277  0.81547978    -0.19660
H1674       H  0.02156243  0.57873559  0.77621375     0.18110
H1675       H  0.11945403  0.57853129  0.78145259     0.18120
F1676       F  0.10135111  0.55503049  0.74103682    -0.19640
C1677       C  0.27950322  0.57544995  0.56063936    -0.21080
C1678       C  0.26037456  0.56347377  0.57650065    -0.09120
C1679       C  0.26371334  0.56417736  0.60364818     0.29740
C1680       C  0.28593967  0.57580450  0.61443081    -0.21080
C1681       C  0.30498041  0.58771124  0.59861438    -0.09130
C1682       C  0.30147649  0.58769723  0.57156322     0.29740
F1683       F  0.31959213  0.59888037  0.55568104    -0.19660
H1684       H  0.27761763  0.57508901  0.53970951     0.18110
H1685       H  0.28791332  0.57610135  0.63536906     0.18120
F1686       F  0.24507395  0.55448141  0.61993831    -0.19640
C1687       C  0.19137775  0.49082535  0.60523397    -0.21080
C1688       C  0.19374599  0.49171505  0.57800855    -0.09120
C1689       C  0.18406040  0.47078471  0.56335514     0.29740
C1690       C  0.17108055  0.45022555  0.57562239    -0.21080
C1691       C  0.16789666  0.44981113  0.60272692    -0.09130
C1692       C  0.17868588  0.47003709  0.61754106     0.29740
F1693       F  0.17562408  0.47053705  0.64372499    -0.19660
H1694       H  0.19847012  0.50677210  0.61697156     0.18110
H1695       H  0.16326564  0.43464626  0.56383776     0.18120
F1696       F  0.18713772  0.47014365  0.53717512    -0.19640
C1697       C  0.26633029  0.68897554  0.66818021    -0.21080
C1698       C  0.26400706  0.69051099  0.69530153    -0.09120
C1699       C  0.28321028  0.67776601  0.71081942     0.29740
C1700       C  0.30407986  0.66373638  0.69927309    -0.21080
C1701       C  0.30650214  0.66271459  0.67217169    -0.09130
C1702       C  0.28738503  0.67543514  0.65670892     0.29740
F1703       F  0.28860798  0.67416801  0.63040204    -0.19660
H1704       H  0.25158935  0.69800116  0.65573569     0.18110
H1705       H  0.31870699  0.65420986  0.71149425     0.18120
F1706       F  0.28230202  0.67949014  0.73709834    -0.19640
C1707       C  0.16278722  0.69672052  0.76054616    -0.21080
C1708       C  0.19061866  0.69587806  0.76074100    -0.09120
C1709       C  0.20356469  0.68242288  0.78105247     0.29740
C1710       C  0.18893706  0.66942669  0.80007130    -0.21080
C1711       C  0.16117605  0.67008863  0.79966869    -0.09130
C1712       C  0.14817445  0.68414382  0.77988247     0.29740
F1713       F  0.12134957  0.68490043  0.77863049    -0.19660
H1714       H  0.15226120  0.70658324  0.74500861     0.18110
H1715       H  0.19936075  0.65910123  0.81539148     0.18120
F1716       F  0.23035942  0.68217229  0.78283443    -0.19640
C1717       C  0.17279465  0.77044624  0.69151245    -0.21080
C1718       C  0.20032598  0.76673937  0.69371047    -0.09120
C1719       C  0.21712113  0.78546828  0.68236123     0.29740
C1720       C  0.20647516  0.80668108  0.66845701    -0.21080
C1721       C  0.17899285  0.81013218  0.66635226    -0.09130
C1722       C  0.16223090  0.79196466  0.67828319     0.29740
F1723       F  0.13553660  0.79432026  0.67611329    -0.19660
H1724       H  0.15926984  0.75625139  0.69944287     0.18110
H1725       H  0.21970249  0.82063319  0.65962287     0.18120
F1726       F  0.24378031  0.78364874  0.68505977    -0.19640
C1727       C  0.14760163  0.57462962  0.48657076    -0.21080
C1728       C  0.16273945  0.58548782  0.46646472    -0.09120
C1729       C  0.19051758  0.58408408  0.46803721     0.29740
C1730       C  0.20278207  0.57225214  0.48939790    -0.21080
C1731       C  0.18772593  0.56187462  0.50986778    -0.09130
C1732       C  0.15987187  0.56320422  0.50821342     0.29740
F1733       F  0.14443078  0.55457393  0.52797447    -0.19660
H1734       H  0.12619873  0.57586721  0.48600340     0.18110
H1735       H  0.22418956  0.57115066  0.48988303     0.18120
F1736       F  0.20589022  0.59393074  0.44879528    -0.19640
C1737       C  0.10666092  0.68104937  0.48291002    -0.21080
C1738       C  0.09130266  0.66998606  0.46331439    -0.09120
C1739       C  0.06364505  0.67343170  0.46399046     0.29740
C1740       C  0.05169862  0.68785702  0.48395784    -0.21080
C1741       C  0.06702928  0.69866215  0.50386935    -0.09130
C1742       C  0.09473524  0.69485770  0.50320721     0.29740
F1743       F  0.11030924  0.70338504  0.52277826    -0.19660
H1744       H  0.12793444  0.67817256  0.48303660     0.18110
H1745       H  0.03042184  0.69059777  0.48380805     0.18120
F1746       F  0.04819340  0.66320235  0.44515885    -0.19640
C1747       C  0.99282826  0.67776441  0.57364136    -0.21080
C1748       C  0.99631476  0.70493850  0.57252245    -0.09120
C1749       C  0.97668807  0.72131544  0.58361153     0.29740
C1750       C  0.95448609  0.71058115  0.59579833    -0.21080
C1751       C  0.95103839  0.68346798  0.59647986    -0.09130
C1752       C  0.97037041  0.66713896  0.58518460     0.29740
F1753       F  0.96808906  0.64078501  0.58620791    -0.19660
H1754       H  0.00775179  0.66455931  0.56593121     0.18110
H1755       H  0.93972290  0.72347690  0.60431258     0.18120
F1756       F  0.97851385  0.74767285  0.58210545    -0.19640
C1757       C  0.05890911  0.78997843  0.58166229    -0.21080
C1758       C  0.07205538  0.76809875  0.57112721    -0.09120
C1759       C  0.09993694  0.76694756  0.57200595     0.29740
C1760       C  0.11420351  0.78763687  0.58220251    -0.21080
C1761       C  0.10109527  0.80952490  0.59249534    -0.09130
C1762       C  0.07326128  0.81046142  0.59245078     0.29740
F1763       F  0.05997214  0.83148637  0.60209736    -0.19660
H1764       H  0.03751978  0.79141929  0.58116295     0.18110
H1765       H  0.13560973  0.78627047  0.58260455     0.18120
F1766       F  0.11348550  0.74550311  0.56369686    -0.19640
C1767       C  0.93332677  0.15676273  0.67959791    -0.21080
C1768       C  0.92007229  0.17062149  0.65988531    -0.09120
C1769       C  0.92755756  0.19655220  0.65472350     0.29740
C1770       C  0.94735489  0.20835135  0.66949047    -0.21080
C1771       C  0.96008263  0.19461119  0.68965405    -0.09130
C1772       C  0.95304022  0.16845440  0.69426439     0.29740
F1773       F  0.96492062  0.15405727  0.71319131    -0.19660
H1774       H  0.92834186  0.13671760  0.68391246     0.18110
H1775       H  0.95220245  0.22851075  0.66556615     0.18120
F1776       F  0.91550604  0.21074580  0.63577865    -0.19640
C1777       C  0.67167537  0.26328005  0.69433103    -0.21080
C1778       C  0.69950030  0.26277219  0.69565135    -0.09120
C1779       C  0.71385102  0.28231205  0.68286981     0.29740
C1780       C  0.70062611  0.30105667  0.66796747    -0.21080
C1781       C  0.67291203  0.30097125  0.66594865    -0.09130
C1782       C  0.65842958  0.28233804  0.67978960     0.29740
F1783       F  0.63165029  0.28161542  0.67810410    -0.19660
H1784       H  0.66015336  0.24824328  0.70369669     0.18110
H1785       H  0.71211176  0.31563698  0.65784431     0.18120
F1786       F  0.74061659  0.28324881  0.68466989    -0.19640
C1787       C  0.67021475  0.19430632  0.76309198    -0.21080
C1788       C  0.69803368  0.19394504  0.76310903    -0.09120
C1789       C  0.71156670  0.18098511  0.78326541     0.29740
C1790       C  0.69736050  0.16825672  0.80272447    -0.21080
C1791       C  0.66957375  0.16871434  0.80258519    -0.09130
C1792       C  0.65607438  0.18202452  0.78272970     0.29740
F1793       F  0.62923252  0.18222553  0.78166088    -0.19660
H1794       H  0.65931877  0.20363568  0.74747112     0.18110
H1795       H  0.70805994  0.15823504  0.81806037     0.18120
F1796       F  0.73839933  0.18095777  0.78438107    -0.19640
C1797       C  0.78622760  0.17766760  0.70416097    -0.21080
C1798       C  0.76452514  0.18901210  0.69112882    -0.09120
C1799       C  0.76294027  0.18672091  0.66394804     0.29740
C1800       C  0.78343579  0.17485188  0.65007037    -0.21080
C1801       C  0.80545035  0.16429686  0.66298317    -0.09130
C1802       C  0.80649945  0.16516547  0.69021457     0.29740
F1803       F  0.82761598  0.15505137  0.70318451    -0.19660
H1804       H  0.78781468  0.17908973  0.72507396     0.18110
H1805       H  0.78202890  0.17372616  0.62911436     0.18120
F1806       F  0.74141326  0.19560951  0.65076167    -0.19640
C1807       C  0.49927775  0.19813866  0.58333390    -0.21080
C1808       C  0.50042932  0.19714359  0.55596840    -0.09120
C1809       C  0.47833420  0.18763513  0.54251549     0.29740
C1810       C  0.45624289  0.17860163  0.55616412    -0.21080
C1811       C  0.45530735  0.17946734  0.58342156    -0.09130
C1812       C  0.47689778  0.18971016  0.59691311     0.29740
F1813       F  0.47702494  0.19020520  0.62326489    -0.19660
H1814       H  0.51601031  0.20492289  0.59439758     0.18110
H1815       H  0.43976721  0.17080931  0.54537448     0.18120
F1816       F  0.47778583  0.18746249  0.51618023    -0.19640
C1817       C  0.55419550  0.17933177  0.46428825    -0.21080
C1818       C  0.56985904  0.18890908  0.48461890    -0.09120
C1819       C  0.59762774  0.18636819  0.48260563     0.29740
C1820       C  0.60931720  0.17610310  0.46023390    -0.21080
C1821       C  0.59375892  0.16715722  0.43972064    -0.09130
C1822       C  0.56602109  0.16827202  0.44210606     0.29740
F1823       F  0.55041832  0.15951778  0.42266489    -0.19660
H1824       H  0.53283577  0.18098509  0.46528427     0.18110
H1825       H  0.63069973  0.17457741  0.45917930     0.18120
F1826       F  0.61359741  0.19339878  0.50248413    -0.19640
C1827       C  0.56179340  0.28165221  0.56007387    -0.21080
C1828       C  0.57542023  0.25974649  0.55034340    -0.09120
C1829       C  0.60318859  0.25829107  0.55296018     0.29740
C1830       C  0.61678803  0.27815085  0.56557007    -0.21080
C1831       C  0.60292357  0.29939685  0.57624611    -0.09130
C1832       C  0.57532562  0.30122998  0.57303347     0.29740
F1833       F  0.56139559  0.32198764  0.58242301    -0.19660
H1834       H  0.54053833  0.28347153  0.55791575     0.18110
H1835       H  0.63801206  0.27633438  0.56802949     0.18120
F1836       F  0.61705723  0.23703252  0.54468647    -0.19640
C1837       C  0.67733736  0.11195815  0.46051309    -0.21080
C1838       C  0.67373166  0.09760531  0.43766305    -0.09120
C1839       C  0.68261760  0.07158133  0.43654117     0.29740
C1840       C  0.69463997  0.06000695  0.45824097    -0.21080
C1841       C  0.69791056  0.07426919  0.48124986    -0.09130
C1842       C  0.68915275  0.10036986  0.48223672     0.29740
F1843       F  0.69102586  0.11427052  0.50454109    -0.19660
H1844       H  0.67024906  0.13195828  0.46175877     0.18110
H1845       H  0.70138406  0.03989531  0.45715267     0.18120
F1846       F  0.68006884  0.05759079  0.41437394    -0.19640
C1847       C  0.68026834  0.98708906  0.53718542    -0.21080
C1848       C  0.69220284  0.00708063  0.55155403    -0.09120
C1849       C  0.68941257  0.00698103  0.57879750     0.29740
C1850       C  0.67613400  0.98681004  0.59127372    -0.21080
C1851       C  0.66453793  0.96676264  0.57697918    -0.09130
C1852       C  0.66630493  0.96721626  0.54974006     0.29740
F1853       F  0.65533444  0.94804139  0.53534701    -0.19660
H1854       H  0.68203652  0.98664244  0.51623551     0.18110
H1855       H  0.67445204  0.98713600  0.61224793     0.18120
F1856       F  0.69874016  0.02680988  0.59344513    -0.19640
C1857       C  0.78653680  0.08266038  0.53908658    -0.21080
C1858       C  0.76495181  0.07255263  0.55304243    -0.09120
C1859       C  0.76490631  0.07462908  0.58035933     0.29740
C1860       C  0.78605331  0.08615556  0.59321606    -0.21080
C1861       C  0.80726686  0.09659348  0.57921690    -0.09130
C1862       C  0.80742699  0.09476260  0.55201490     0.29740
F1863       F  0.82803348  0.10416470  0.53802440    -0.19660
H1864       H  0.78727951  0.08112320  0.51813383     0.18110
H1865       H  0.78541979  0.08775916  0.61418256     0.18120
F1866       F  0.74390798  0.06662058  0.59467057    -0.19640
C1867       C  0.49436903  0.10416866  0.68808714    -0.21080
C1868       C  0.49399251  0.07679158  0.68978365    -0.09120
C1869       C  0.47277517  0.06333531  0.67848121     0.29740
C1870       C  0.45338478  0.07689976  0.66447910    -0.21080
C1871       C  0.45424160  0.10411227  0.66225961    -0.09130
C1872       C  0.47451537  0.11777482  0.67471416     0.29740
F1873       F  0.47579037  0.14417000  0.67298510    -0.19660
H1874       H  0.51051857  0.11503517  0.69636580     0.18110
H1875       H  0.43745131  0.06615912  0.65562163     0.18120
F1876       F  0.47063541  0.03708493  0.68110456    -0.19640
C1877       C  0.59316280  0.07046861  0.75777185    -0.21080
C1878       C  0.56535475  0.06919819  0.75739317    -0.09120
C1879       C  0.55102055  0.07862690  0.77899475     0.29740
C1880       C  0.56419656  0.09014731  0.79977900    -0.21080
C1881       C  0.59187995  0.09176093  0.79984700    -0.09130
C1882       C  0.60634543  0.08137537  0.77887867     0.29740
F1883       F  0.63313430  0.08296430  0.77816379    -0.19660
H1884       H  0.60475556  0.06368233  0.74136213     0.18110
H1885       H  0.55275084  0.09769930  0.81597317     0.18120
F1886       F  0.52431457  0.07640648  0.78024430    -0.19640
C1887       C  0.56310155  0.00660680  0.65634861    -0.21080
C1888       C  0.56170291  0.00544147  0.68364409    -0.09120
C1889       C  0.57211971  0.98332355  0.69647806     0.29740
C1890       C  0.58475566  0.96356698  0.68235044    -0.21080
C1891       C  0.58646006  0.96506824  0.65521709    -0.09130
C1892       C  0.57504211  0.98644972  0.64220470     0.29740
F1893       F  0.57662538  0.98849905  0.61596105    -0.19660
H1894       H  0.55557425  0.02348090  0.64591167     0.18110
H1895       H  0.59311469  0.94693718  0.69260733     0.18120
F1896       F  0.56979210  0.98056354  0.72259508    -0.19640
C1897       C  0.06691160  0.06854479  0.44420459    -0.21080
C1898       C  0.04127038  0.06373731  0.43497882    -0.09120
C1899       C  0.03370652  0.07379359  0.41064266     0.29740
C1900       C  0.05147954  0.08813469  0.39578217    -0.21080
C1901       C  0.07736882  0.09217206  0.40445987    -0.09130
C1902       C  0.08504569  0.08239234  0.42886020     0.29740
F1903       F  0.10979443  0.08660186  0.43795700    -0.19660
H1904       H  0.07310395  0.06091162  0.46287974     0.18110
H1905       H  0.04517566  0.09563402  0.37707272     0.18120
F1906       F  0.00901612  0.06981080  0.40122406    -0.19640
C1907       C  0.93970188  0.06712156  0.55160951    -0.21080
C1908       C  0.96365319  0.08038686  0.54880011    -0.09120
C1909       C  0.96590534  0.10596635  0.55795465     0.29740
C1910       C  0.94438516  0.11779379  0.57065421    -0.21080
C1911       C  0.92095113  0.10383951  0.57467899    -0.09130
C1912       C  0.91850144  0.07866792  0.56461312     0.29740
F1913       F  0.89581561  0.06509779  0.56787073    -0.19660
H1914       H  0.93789218  0.04724112  0.54475373     0.18110
H1915       H  0.94644872  0.13722557  0.57856436     0.18120
F1916       F  0.98925412  0.11865973  0.55622046    -0.19640
C1917       C  0.09173763  0.94106261  0.53995647    -0.21080
C1918       C  0.07532857  0.95836731  0.55398754    -0.09120
C1919       C  0.07502908  0.95686017  0.58127939     0.29740
C1920       C  0.09048415  0.93847716  0.59414989    -0.21080
C1921       C  0.10668172  0.92091856  0.58041367    -0.09130
C1922       C  0.10762287  0.92258557  0.55309279     0.29740
F1923       F  0.12301661  0.90587056  0.53911629    -0.19660
H1924       H  0.09208000  0.94171889  0.51893730     0.18110
H1925       H  0.08934574  0.93776673  0.61514814     0.18120
F1926       F  0.05861755  0.97223172  0.59572072    -0.19640
C1927       C  0.95013470  0.08914025  0.43417075    -0.21080
C1928       C  0.93723037  0.06784437  0.44535279    -0.09120
C1929       C  0.90966485  0.06583845  0.44321363     0.29740
C1930       C  0.89525212  0.08512722  0.42974515    -0.21080
C1931       C  0.90843231  0.10595009  0.41767358    -0.09130
C1932       C  0.93599939  0.10787131  0.42017351     0.29740
F1933       F  0.94929433  0.12796530  0.40918011    -0.19660
H1934       H  0.97143187  0.09085086  0.43568694     0.18110
H1935       H  0.87399474  0.08337737  0.42800658     0.18120
F1936       F  0.89684834  0.04537468  0.45402341    -0.19640
C1937       C  0.82017043  0.46176765  0.69149156    -0.21080
C1938       C  0.79554232  0.45325860  0.70055885    -0.09120
C1939       C  0.78715595  0.42807767  0.69396671     0.29740
C1940       C  0.80225553  0.41265846  0.67682091    -0.21080
C1941       C  0.82606853  0.42198478  0.66619201    -0.09130
C1942       C  0.83541868  0.44633936  0.67471556     0.29740
F1943       F  0.85847199  0.45619130  0.66560537    -0.19660
H1944       H  0.82687338  0.48120371  0.69614844     0.18110
H1945       H  0.79466955  0.39391263  0.67095388     0.18120
F1946       F  0.76319635  0.41943252  0.70199816    -0.19640
C1947       C  0.67243633  0.44014017  0.69773229    -0.21080
C1948       C  0.69573805  0.45135163  0.68839259    -0.09120
C1949       C  0.70763408  0.44134930  0.66565711     0.29740
C1950       C  0.69603021  0.42107265  0.65220575    -0.21080
C1951       C  0.67235598  0.41018948  0.66098962    -0.09130
C1952       C  0.66062718  0.41981147  0.68406051     0.29740
F1953       F  0.63786804  0.40963615  0.69351084    -0.19660
H1954       H  0.66325793  0.44729071  0.71540542     0.18110
H1955       H  0.70568696  0.41395671  0.63476308     0.18120
F1956       F  0.73104621  0.45061194  0.65673552    -0.19640
C1957       C  0.81786868  0.56979632  0.68672482    -0.21080
C1958       C  0.79577874  0.58170365  0.69852130    -0.09120
C1959       C  0.79420606  0.60905433  0.69981450     0.29740
C1960       C  0.81397414  0.62412461  0.68793082    -0.21080
C1961       C  0.83517621  0.61186258  0.67475025    -0.09130
C1962       C  0.83731338  0.58459400  0.67498839     0.29740
F1963       F  0.85826624  0.57216068  0.66373994    -0.19660
H1964       H  0.81987090  0.54871890  0.68617168     0.18110
H1965       H  0.81219268  0.64520233  0.68808651     0.18120
F1966       F  0.77307851  0.62103588  0.71115784    -0.19640
C1967       C  0.70831657  0.59391840  0.80461776    -0.21080
C1968       C  0.70419513  0.56696087  0.80304136    -0.09120
C1969       C  0.68209307  0.55616790  0.81543189     0.29740
C1970       C  0.66509902  0.57187313  0.83018058    -0.21080
C1971       C  0.67009375  0.59859215  0.83340919    -0.09130
C1972       C  0.69153833  0.60967420  0.81984342     0.29740
F1973       F  0.69695292  0.63544374  0.82204151    -0.19660
H1974       H  0.72550069  0.60246631  0.79547111     0.18110
H1975       H  0.64878210  0.56272455  0.84021971     0.18120
F1976       F  0.67765025  0.53012039  0.81423516    -0.19640
C1977       C  0.49789292  0.59285433  0.18896587    -0.21080
C1978       C  0.49979649  0.56550225  0.18763823    -0.09120
C1979       C  0.47945966  0.55175346  0.17515929     0.29740
C1980       C  0.45811405  0.56525055  0.16388662    -0.21080
C1981       C  0.45631685  0.59255014  0.16539280    -0.09130
C1982       C  0.47635951  0.60624203  0.17819984     0.29740
F1983       F  0.47570550  0.63270251  0.17947199    -0.19660
H1984       H  0.51341838  0.60404053  0.19794697     0.18110
H1985       H  0.44275869  0.55433172  0.15430363     0.18120
F1986       F  0.47983623  0.52528725  0.17434873    -0.19640
C1987       C  0.59901636  0.49534428  0.17771265    -0.21080
C1988       C  0.57136216  0.49706150  0.18056817    -0.09120
C1989       C  0.55576605  0.47829160  0.16783725     0.29740
C1990       C  0.56753918  0.45907805  0.15211364    -0.21080
C1991       C  0.59512412  0.45750673  0.14922830    -0.09130
C1992       C  0.61079674  0.47575649  0.16239441     0.29740
F1993       F  0.63752944  0.47520206  0.15980388    -0.19660
H1994       H  0.61158273  0.50957565  0.18685552     0.18110
H1995       H  0.55504874  0.44498911  0.14262577     0.18120
F1996       F  0.52909174  0.47806666  0.17100179    -0.19640
C1997       C  0.47539195  0.68359567  0.05085866    -0.21080
C1998       C  0.49780586  0.69226227  0.06422504    -0.09120
C1999       C  0.49847022  0.68978023  0.09154756     0.29740
C2000       C  0.47692294  0.67959170  0.10503432    -0.21080
C2001       C  0.45471530  0.67081738  0.09162347    -0.09130
C2002       C  0.45410619  0.67275962  0.06438077     0.29740
F2003       F  0.43273129  0.66457766  0.05088957    -0.19660
H2004       H  0.47422379  0.68546828  0.02994526     0.18110
H2005       H  0.47802409  0.67760144  0.12595453     0.18120
F2006       F  0.52032195  0.69627757  0.10524807    -0.19640
C2007       C  0.59585650  0.75799915  0.06461115    -0.21080
C2008       C  0.56821555  0.75911868  0.06179290    -0.09120
C2009       C  0.55389458  0.77961840  0.07366901     0.29740
C2010       C  0.56684392  0.79764248  0.08920792    -0.21080
C2011       C  0.59431787  0.79608738  0.09251436    -0.09130
C2012       C  0.60888554  0.77648045  0.07961987     0.29740
F2013       F  0.63555626  0.77459230  0.08231413    -0.19660
H2014       H  0.60731452  0.74230727  0.05589123     0.18110
H2015       H  0.55543321  0.81314580  0.09832902     0.18120
F2016       F  0.52739864  0.78236111  0.07012521    -0.19640
C2017       C  0.58837319  0.67959856  0.99328399    -0.21080
C2018       C  0.56412609  0.69300134  0.99103112    -0.09120
C2019       C  0.55241670  0.69587137  0.96645246     0.29740
C2020       C  0.56491701  0.68534584  0.94442321    -0.21080
C2021       C  0.58930262  0.67217819  0.94674690    -0.09130
C2022       C  0.60086402  0.66918108  0.97133637     0.29740
F2023       F  0.62402008  0.65576484  0.97412775    -0.19660
H2024       H  0.59761897  0.67725646  0.01211221     0.18110
H2025       H  0.55576233  0.68768492  0.92555735     0.18120
F2026       F  0.52931851  0.70937073  0.96373992    -0.19640
C2027       C  0.66678576  0.49631327  0.04349688    -0.21080
C2028       C  0.69450667  0.49801196  0.04519042    -0.09120
C2029       C  0.70876100  0.47722891  0.05664965     0.29740
C2030       C  0.69537710  0.45601325  0.06732853    -0.21080
C2031       C  0.66764511  0.45479619  0.06630071    -0.09130
C2032       C  0.65347549  0.47486916  0.05367770     0.29740
F2033       F  0.62664757  0.47459604  0.05247893    -0.19660
H2034       H  0.65518982  0.51209590  0.03510558     0.18110
H2035       H  0.70672767  0.44057913  0.07664250     0.18120
F2036       F  0.73559740  0.47732832  0.05750408    -0.19640
C2037       C  0.80131778  0.56623580  0.08393735    -0.21080
C2038       C  0.80113985  0.59335260  0.08754465    -0.09120
C2039       C  0.78006941  0.60832706  0.07743424     0.29740
C2040       C  0.75987367  0.59643869  0.06349951    -0.21080
C2041       C  0.76038494  0.56940860  0.05894792    -0.09130
C2042       C  0.78132468  0.55432870  0.06953539     0.29740
F2043       F  0.78315793  0.52827940  0.06507211    -0.19660
H2044       H  0.81748037  0.55439128  0.09144014     0.18110
H2045       H  0.74373212  0.60848093  0.05629768     0.18120
F2046       F  0.77880045  0.63449856  0.08135069    -0.19640
C2047       C  0.66767682  0.57347354  0.98297032    -0.21080
C2048       C  0.69542935  0.57395809  0.98478705    -0.09120
C2049       C  0.70970571  0.58835435  0.96619028     0.29740
C2050       C  0.69632819  0.60159163  0.94615341    -0.21080
C2051       C  0.66863918  0.60030855  0.94406289    -0.09130
C2052       C  0.65444194  0.58624073  0.96282659     0.29740
F2053       F  0.62761372  0.58535715  0.96214678    -0.19660
H2054       H  0.65604073  0.56326292  0.99737729     0.18110
H2055       H  0.70766036  0.61234436  0.93190811     0.18120
F2056       F  0.73653378  0.58894525  0.96679906    -0.19640
C2057       C  0.57986376  0.60054452  0.28144067    -0.21080
C2058       C  0.58949062  0.58509229  0.30194513    -0.09120
C2059       C  0.58944080  0.55770289  0.29907182     0.29740
C2060       C  0.57954631  0.54622490  0.27633830    -0.21080
C2061       C  0.56973762  0.56175661  0.25588554    -0.09130
C2062       C  0.57046676  0.58916121  0.25861995     0.29740
F2063       F  0.56275551  0.60510450  0.23887916    -0.19660
H2064       H  0.58034569  0.62162511  0.28274351     0.18110
H2065       H  0.57913361  0.52515747  0.27491814     0.18120
F2066       F  0.59846352  0.54197339  0.31843355    -0.19640
C2067       C  0.69515037  0.65610658  0.26812679    -0.21080
C2068       C  0.69697807  0.68354816  0.26870966    -0.09120
C2069       C  0.68662249  0.69696828  0.29035593     0.29740
C2070       C  0.67373755  0.68336276  0.31014645    -0.21080
C2071       C  0.67140156  0.65609713  0.30918296    -0.09130
C2072       C  0.68268872  0.64246145  0.28825131     0.29740
F2073       F  0.68025410  0.61618608  0.28644259    -0.19660
H2074       H  0.70260036  0.64519419  0.25163218     0.18110
H2075       H  0.66533096  0.69422104  0.32626635     0.18120
F2076       F  0.68907276  0.72321128  0.29256430    -0.19640
C2077       C  0.78323817  0.67494365  0.15539069    -0.21080
C2078       C  0.80538660  0.66436883  0.16802701    -0.09120
C2079       C  0.80654451  0.66475315  0.19528499     0.29740
C2080       C  0.78597464  0.67633887  0.20957197    -0.21080
C2081       C  0.76382551  0.68716849  0.19686100    -0.09130
C2082       C  0.76243400  0.68582984  0.16959024     0.29740
F2083       F  0.74057934  0.69425320  0.15663009    -0.19660
H2084       H  0.78170734  0.67410750  0.13442842     0.18110
H2085       H  0.78747202  0.67710054  0.23052678     0.18120
F2086       F  0.82778557  0.65456361  0.20800631    -0.19640
C2087       C  0.66719618  0.75685840  0.19970406    -0.21080
C2088       C  0.69477769  0.75690744  0.20290167    -0.09120
C2089       C  0.70924777  0.77789480  0.19242393     0.29740
C2090       C  0.69638239  0.79770793  0.17831246    -0.21080
C2091       C  0.66885797  0.79737930  0.17500671    -0.09130
C2092       C  0.65433519  0.77688343  0.18607711     0.29740
F2093       F  0.62775310  0.77554924  0.18271701    -0.19660
H2094       H  0.65558132  0.74078618  0.20698420     0.18110
H2095       H  0.70788058  0.81350175  0.17025426     0.18120
F2096       F  0.73578709  0.77941828  0.19599050    -0.19640
C2097       C  0.08359639  0.31808667  0.84258108    -0.21080
C2098       C  0.09074798  0.34349101  0.83528287    -0.09120
C2099       C  0.07474281  0.35718120  0.81739573     0.29740
C2100       C  0.05272556  0.34530473  0.80652306    -0.21080
C2101       C  0.04604577  0.31955276  0.81310684    -0.09130
C2102       C  0.06151203  0.30619979  0.83166344     0.29740
F2103       F  0.05586888  0.28142057  0.83878006    -0.19660
H2104       H  0.09532641  0.30719182  0.85654658     0.18110
H2105       H  0.04116463  0.35625034  0.79245727     0.18120
F2106       F  0.08015884  0.38211305  0.81038628    -0.19640
C2107       C  0.66869200  0.41241927  0.80683958    -0.21080
C2108       C  0.66585669  0.41431224  0.83397801    -0.09120
C2109       C  0.68402923  0.42922129  0.84797335     0.29740
C2110       C  0.70375434  0.44284830  0.83500120    -0.21080
C2111       C  0.70581382  0.44225931  0.80774662    -0.09130
C2112       C  0.68840946  0.42638248  0.79373569     0.29740
F2113       F  0.68945136  0.42543246  0.76742437    -0.19660
H2114       H  0.65503814  0.40085725  0.79566100     0.18110
H2115       H  0.71705657  0.45458784  0.84641479     0.18120
F2116       F  0.68279831  0.43071220  0.87426895    -0.19640
C2117       C  0.30400061  0.53158893  0.92373394    -0.21080
C2118       C  0.32015613  0.51205479  0.93503296    -0.09120
C2119       C  0.34782692  0.51488241  0.93385920     0.29740
C2120       C  0.35883807  0.53672598  0.92186077    -0.21080
C2121       C  0.34267797  0.55591136  0.91020162    -0.09130
C2122       C  0.31508797  0.55316159  0.91122789     0.29740
F2123       F  0.29882615  0.57155482  0.90064527    -0.19660
H2124       H  0.28265352  0.53018510  0.92460941     0.18110
H2125       H  0.38018548  0.53825835  0.92102408     0.18120
F2126       F  0.36436730  0.49606618  0.94322738    -0.19640
C2127       C  0.21078554  0.44407097  0.90740223    -0.21080
C2128       C  0.21000707  0.41671693  0.90660332    -0.09120
C2129       C  0.23034512  0.40216336  0.91856739     0.29740
C2130       C  0.25096282  0.41478526  0.93117314    -0.21080
C2131       C  0.25164281  0.44216526  0.93243924    -0.09130
C2132       C  0.23121944  0.45674977  0.92042018     0.29740
F2133       F  0.23051032  0.48318843  0.92188258    -0.19660
H2134       H  0.19521167  0.45563942  0.89843778     0.18110
H2135       H  0.26667158  0.40305176  0.93968130     0.18120
F2136       F  0.23074653  0.37570077  0.91741923    -0.19640
C2137       C  0.32955268  0.45681577  0.02450763    -0.21080
C2138       C  0.31849695  0.44197729  0.00436657    -0.09120
C2139       C  0.31991077  0.41447998  0.00624848     0.29740
C2140       C  0.33175386  0.40241472  0.02773901    -0.21080
C2141       C  0.34329891  0.41729429  0.04738565    -0.09130
C2142       C  0.34211133  0.44464842  0.04562722     0.29740
F2143       F  0.35278251  0.45961074  0.06451037    -0.19660
H2144       H  0.32853414  0.47791832  0.02393674     0.18110
H2145       H  0.33291423  0.38130159  0.02847930     0.18120
F2146       F  0.31112242  0.39910338  0.98674959    -0.19640
C2147       C  0.50872179  0.41817517  0.81494618    -0.21080
C2148       C  0.50967891  0.44556542  0.81337456    -0.09120
C2149       C  0.53121741  0.45861596  0.82430627     0.29740
C2150       C  0.55161731  0.44432433  0.83611529    -0.21080
C2151       C  0.55100307  0.41692525  0.83672712    -0.09130
C2152       C  0.52928871  0.40393064  0.82627500     0.29740
F2153       F  0.52761655  0.37754192  0.82763189    -0.19660
H2154       H  0.49202891  0.40773423  0.80714115     0.18110
H2155       H  0.56822775  0.45461882  0.84427475     0.18120
F2156       F  0.53309700  0.48496227  0.82264037    -0.19640
C2157       C  0.45661183  0.53686054  0.81853899    -0.21080
C2158       C  0.44153090  0.51752651  0.80629619    -0.09120
C2159       C  0.41374578  0.52040719  0.80620120     0.29740
C2160       C  0.40157856  0.54184537  0.81835611    -0.21080
C2161       C  0.41666799  0.56052841  0.83140315    -0.09130
C2162       C  0.44438672  0.55797276  0.83116126     0.29740
F2163       F  0.45970194  0.57592440  0.84303131    -0.19660
H2164       H  0.47801188  0.53548378  0.81859751     0.18110
H2165       H  0.38017190  0.54320927  0.81855077     0.18120
F2166       F  0.39815779  0.50182541  0.79574469    -0.19640
C2167       C  0.43198400  0.44423841  0.69492411    -0.21080
C2168       C  0.43103167  0.41683322  0.69599848    -0.09120
C2169       C  0.43954734  0.40387522  0.71850455     0.29740
C2170       C  0.44812665  0.41819588  0.73979449    -0.21080
C2171       C  0.44906527  0.44568009  0.73889231    -0.09130
C2172       C  0.44116976  0.45858774  0.71605354     0.29740
F2173       F  0.44274255  0.48491857  0.71393826    -0.19660
H2174       H  0.42546639  0.45456789  0.67766800     0.18110
H2175       H  0.45366409  0.40770016  0.75727259     0.18120
F2176       F  0.43818777  0.37750374  0.72049367    -0.19640
C2177       C  0.52837160  0.29751064  0.92129946    -0.21080
C2178       C  0.50837440  0.31183901  0.93408098    -0.09120
C2179       C  0.51019344  0.33929030  0.93486730     0.29740
C2180       C  0.53173603  0.35187683  0.92361521    -0.21080
C2181       C  0.55151755  0.33758588  0.91064880    -0.09130
C2182       C  0.54966285  0.31022059  0.90952404     0.29740
F2183       F  0.56860997  0.29572024  0.89737715    -0.19660
H2184       H  0.52759935  0.27641951  0.92054003     0.18110
H2185       H  0.53244268  0.37298506  0.92422482     0.18120
F2186       F  0.49060657  0.35416163  0.94553086    -0.19640
C2187       C  0.44025827  0.33796815  0.00454080    -0.21080
C2188       C  0.43994169  0.31056148  0.00350912    -0.09120
C2189       C  0.42764888  0.29677720  0.02386933     0.29740
C2190       C  0.41612167  0.31034201  0.04473879    -0.21080
C2191       C  0.41716285  0.33770510  0.04585740    -0.09130
C2192       C  0.42928195  0.35138252  0.02548973     0.29740
F2193       F  0.42978690  0.37786467  0.02536777    -0.19660
H2194       H  0.44880404  0.34919818  0.98884324     0.18110
H2195       H  0.40686264  0.29945709  0.06028702     0.18120
F2196       F  0.42741615  0.27030335  0.02403837    -0.19640
C2197       C  0.45040323  0.22455029  0.91986269    -0.21080
C2198       C  0.43583200  0.24544991  0.93067472    -0.09120
C2199       C  0.40805101  0.24551229  0.92845645     0.29740
C2200       C  0.39526251  0.22469311  0.91662033    -0.21080
C2201       C  0.40980667  0.20371728  0.90613021    -0.09130
C2202       C  0.43756550  0.20393024  0.90755016     0.29740
F2203       F  0.45221221  0.18377151  0.89794445    -0.19660
H2204       H  0.47176908  0.22392793  0.92139713     0.18110
H2205       H  0.37386902  0.22515455  0.91530106     0.18120
F2206       F  0.39321475  0.26598088  0.93710493    -0.19640
C2207       C  0.29771537  0.22382493  0.81063084    -0.21080
C2208       C  0.31467167  0.24330002  0.80099852    -0.09120
C2209       C  0.34202465  0.24076532  0.80571790     0.29740
C2210       C  0.35199268  0.21930627  0.81944843    -0.21080
C2211       C  0.33499769  0.20036680  0.82957795    -0.09130
C2212       C  0.30770517  0.20274332  0.82513068     0.29740
F2213       F  0.29080939  0.18456266  0.83445546    -0.19660
H2214       H  0.27661249  0.22506946  0.80718428     0.18110
H2215       H  0.37307572  0.21801641  0.82309519     0.18120
F2216       F  0.35907889  0.25970607  0.79846453    -0.19640
C2217       C  0.34696337  0.31573498  0.69510078    -0.21080
C2218       C  0.34947122  0.34299459  0.69570134    -0.09120
C2219       C  0.33777340  0.35702413  0.71615602     0.29740
C2220       C  0.32420500  0.34387506  0.73586802    -0.21080
C2221       C  0.32148215  0.31652459  0.73531203    -0.09130
C2222       C  0.33284260  0.30261122  0.71442597     0.29740
F2223       F  0.32980355  0.27643600  0.71222367    -0.19660
H2224       H  0.35569419  0.30456599  0.67936078     0.18110
H2225       H  0.31624144  0.35516052  0.75188091     0.18120
F2226       F  0.34042168  0.38329428  0.71769895    -0.19640
C2227       C  0.22939231  0.32979072  0.78825362    -0.21080
C2228       C  0.24954741  0.31706393  0.80241999    -0.09120
C2229       C  0.24889834  0.31813354  0.82973047     0.29740
C2230       C  0.22805134  0.33066273  0.84246228    -0.21080
C2231       C  0.20784727  0.34312149  0.82839171    -0.09130
C2232       C  0.20877919  0.34297000  0.80111965     0.29740
F2233       F  0.18945573  0.35485473  0.78697849    -0.19660
H2234       H  0.22944979  0.32928775  0.76723589     0.18110
H2235       H  0.22802363  0.33114510  0.86349511     0.18120
F2236       F  0.26885935  0.30783495  0.84422649    -0.19640
C2237       C  0.84092361  0.19512546  0.10241766    -0.21080
C2238       C  0.84720966  0.16899762  0.09671308    -0.09120
C2239       C  0.83065942  0.15489562  0.08005565     0.29740
C2240       C  0.80917929  0.16719776  0.06825810    -0.21080
C2241       C  0.80408588  0.19382537  0.07237124    -0.09130
C2242       C  0.81964970  0.20759577  0.09012762     0.29740
F2243       F  0.81491363  0.23328463  0.09479435    -0.19660
H2244       H  0.85308912  0.20619026  0.11558993     0.18110
H2245       H  0.79766993  0.15625931  0.05440394     0.18120
F2246       F  0.83544466  0.12933849  0.07468105    -0.19640
C2247       C  0.67723728  0.20836033  0.93745234    -0.21080
C2248       C  0.69729255  0.19501683  0.95114486    -0.09120
C2249       C  0.70155045  0.16824333  0.94609498     0.29740
C2250       C  0.68679789  0.15554066  0.92728811    -0.21080
C2251       C  0.66727207  0.16892819  0.91306855    -0.09130
C2252       C  0.66229733  0.19548083  0.91858890     0.29740
F2253       F  0.64364856  0.20924282  0.90526559    -0.19660
H2254       H  0.67353691  0.22892651  0.94087277     0.18110
H2255       H  0.69084312  0.13504114  0.92379875     0.18120
F2256       F  0.72014126  0.15413095  0.95917041    -0.19640
C2257       C  0.67314500  0.31720216  0.02581167    -0.21080
C2258       C  0.69384113  0.30359948  0.03828083    -0.09120
C2259       C  0.69721332  0.30683830  0.06509155     0.29740
C2260       C  0.68169065  0.32494296  0.07872460    -0.21080
C2261       C  0.66258406  0.34045333  0.06591777    -0.09130
C2262       C  0.65754227  0.33549382  0.03947134     0.29740
F2263       F  0.63915384  0.34973296  0.02628704    -0.19660
H2264       H  0.67064909  0.31544727  0.00500239     0.18110
H2265       H  0.68564224  0.32776046  0.09917438     0.18120
F2266       F  0.71701956  0.29397186  0.07768386    -0.19640
C2267       C  0.70080652  0.34011259  0.94302583    -0.21080
C2268       C  0.70784541  0.31403243  0.93802054    -0.09120
C2269       C  0.69501520  0.30072655  0.91782883     0.29740
C2270       C  0.67486717  0.31319997  0.90371305    -0.21080
C2271       C  0.66708650  0.33889320  0.90972972    -0.09130
C2272       C  0.68068522  0.35239221  0.92924979     0.29740
F2273       F  0.67447280  0.37748247  0.93541381    -0.19660
H2274       H  0.71018018  0.35095513  0.95842512     0.18110
H2275       H  0.66488555  0.30252336  0.88857977     0.18120
F2276       F  0.70146826  0.27561706  0.91205893    -0.19640
C2277       C  0.87148901  0.31669597  0.07045016    -0.21080
C2278       C  0.86065179  0.33561227  0.08731106    -0.09120
C2279       C  0.83306894  0.33942423  0.08791804     0.29740
C2280       C  0.81693868  0.32607457  0.07090016    -0.21080
C2281       C  0.82763405  0.30834271  0.05291498    -0.09130
C2282       C  0.85503345  0.30303296  0.05328277     0.29740
F2283       F  0.86595479  0.28570321  0.03638233    -0.19660
H2284       H  0.89265055  0.31314590  0.06998580     0.18110
H2285       H  0.79580596  0.32986607  0.07167426     0.18120
F2286       F  0.82149927  0.35607193  0.10513816    -0.19640
C2287       C  0.80136642  0.08770868  0.17295849    -0.21080
C2288       C  0.80587470  0.06992210  0.19323932    -0.09120
C2289       C  0.83196007  0.06458090  0.20125919     0.29740
C2290       C  0.85324726  0.07691520  0.18907666    -0.21080
C2291       C  0.84871581  0.09451095  0.16866316    -0.09130
C2292       C  0.82264667  0.10011181  0.16084354     0.29740
F2293       F  0.81785716  0.11742069  0.14136616    -0.19660
H2294       H  0.78140677  0.09166825  0.16628834     0.18110
H2295       H  0.87327488  0.07234854  0.19517792     0.18120
F2296       F  0.83686839  0.04645173  0.21994821    -0.19640
C2297       C  0.66695477  0.07195481  0.31602787    -0.21080
C2298       C  0.67652625  0.09563392  0.32583633    -0.09120
C2299       C  0.70211805  0.10355699  0.31840128     0.29740
C2300       C  0.71819033  0.08720496  0.30305382    -0.21080
C2301       C  0.70918130  0.06267633  0.29512953    -0.09130
C2302       C  0.68310196  0.05557973  0.30102995     0.29740
F2303       F  0.67362857  0.03219501  0.29326706    -0.19660
H2304       H  0.64727078  0.06541125  0.32095349     0.18110
H2305       H  0.73837125  0.09287879  0.29899670     0.18120
F2306       F  0.71229234  0.12626237  0.32718250    -0.19640
C2307       C  0.67074917  0.94105471  0.20568453    -0.21080
C2308       C  0.68420362  0.95865964  0.18944669    -0.09120
C2309       C  0.68386073  0.95475231  0.16247885     0.29740
C2310       C  0.67212054  0.93252926  0.15229634    -0.21080
C2311       C  0.66023435  0.91407838  0.16872104    -0.09130
C2312       C  0.65875129  0.91897372  0.19545000     0.29740
F2313       F  0.64740598  0.90158076  0.21184884    -0.19660
H2314       H  0.67086410  0.94359822  0.22653663     0.18110
H2315       H  0.67294326  0.92938515  0.13151526     0.18120
F2316       F  0.69685365  0.97105896  0.14615115    -0.19640
C2317       C  0.84377780  0.09531177  0.31063331    -0.21080
C2318       C  0.83503365  0.10245349  0.33560350    -0.09120
C2319       C  0.81460358  0.08824220  0.34735445     0.29740
C2320       C  0.80303881  0.06765358  0.33424157    -0.21080
C2321       C  0.81127417  0.06079736  0.30903491    -0.09130
C2322       C  0.83194078  0.07478044  0.29733877     0.29740
F2323       F  0.84061920  0.06883097  0.27308831    -0.19660
H2324       H  0.85958211  0.10585706  0.30120081     0.18110
H2325       H  0.78701564  0.05749896  0.34375233     0.18120
F2326       F  0.80574565  0.09404408  0.37159765    -0.19640
C2327       C  0.07307529  0.90364740  0.44339499    -0.21080
C2328       C  0.09054706  0.91582320  0.42595303    -0.09120
C2329       C  0.08653150  0.94229917  0.41974673     0.29740
C2330       C  0.06485811  0.95582337  0.42964641    -0.21080
C2331       C  0.04680176  0.94359637  0.44630068    -0.09130
C2332       C  0.05133418  0.91750141  0.45367370     0.29740
F2333       F  0.03435900  0.90522130  0.46994942    -0.19660
H2334       H  0.07578867  0.88326584  0.44843921     0.18110
H2335       H  0.06237695  0.97619284  0.42438088     0.18120
F2336       F  0.10355351  0.95529923  0.40404408    -0.19640
C2337       C  0.46016325  0.83858727  0.50496669    -0.21080
C2338       C  0.45757072  0.81131180  0.50348562    -0.09120
C2339       C  0.44585157  0.79810279  0.52454189     0.29740
C2340       C  0.43568664  0.81206527  0.54571255    -0.21080
C2341       C  0.43760796  0.83935274  0.54674543    -0.09130
C2342       C  0.45054023  0.85246483  0.52642662     0.29740
F2343       F  0.45252609  0.87885365  0.52652282    -0.19660
H2344       H  0.46880924  0.84940563  0.48904791     0.18110
H2345       H  0.42613324  0.80150641  0.56131483     0.18120
F2346       F  0.44429848  0.77168155  0.52479435    -0.19640
C2347       C  0.31542487  0.92778370  0.52562272    -0.21080
C2348       C  0.32865546  0.93864130  0.50419381    -0.09120
C2349       C  0.35657045  0.93745195  0.50345923     0.29740
C2350       C  0.37072937  0.92623989  0.52395211    -0.21080
C2351       C  0.35744516  0.91522675  0.54512048    -0.09130
C2352       C  0.32963931  0.91593365  0.54579317     0.29740
F2353       F  0.31623562  0.90570823  0.56622842    -0.19660
H2354       H  0.29404140  0.92861099  0.52687298     0.18110
H2355       H  0.39213983  0.92542292  0.52289750     0.18120
F2356       F  0.37024305  0.94616587  0.48250377    -0.19640
C2357       C  0.30593128  0.02571636  0.42358516    -0.21080
C2358       C  0.32229507  0.00606672  0.43430258    -0.09120
C2359       C  0.34999543  0.00857091  0.43216767     0.29740
C2360       C  0.36085893  0.03065365  0.42065347    -0.21080
C2361       C  0.34450144  0.05021583  0.41015524    -0.09130
C2362       C  0.31692424  0.04749352  0.41133591     0.29740
F2363       F  0.30067215  0.06626539  0.40141602    -0.19660
H2364       H  0.28460969  0.02444156  0.42504773     0.18110
H2365       H  0.38219155  0.03218167  0.41933243     0.18120
F2366       F  0.36668326  0.98936892  0.44048654    -0.19640
C2367       C  0.25056505  0.90922736  0.44165088    -0.21080
C2368       C  0.25268617  0.93659690  0.44135488    -0.09120
C2369       C  0.23121247  0.95156390  0.43177401     0.29740
C2370       C  0.20870014  0.93932223  0.42209946    -0.21080
C2371       C  0.20672540  0.91203110  0.42245128    -0.09130
C2372       C  0.22778028  0.89706244  0.43257202     0.29740
F2373       F  0.22691541  0.87060085  0.43251756    -0.19660
H2374       H  0.26682234  0.89708113  0.44841008     0.18110
H2375       H  0.19264636  0.95122600  0.41446353     0.18120
F2376       F  0.23163613  0.97803331  0.43222228    -0.19640
C2377       C  0.70070345  0.89382912  0.32297837    -0.21080
C2378       C  0.67382706  0.89702632  0.31684210    -0.09120
C2379       C  0.66606476  0.91557998  0.29824221     0.29740
C2380       C  0.68495665  0.93155702  0.28671375    -0.21080
C2381       C  0.71168896  0.92920301  0.29366593    -0.09130
C2382       C  0.71963530  0.90988725  0.31142671     0.29740
F2383       F  0.74542211  0.90738534  0.31837047    -0.19660
H2384       H  0.70682714  0.87965224  0.33746934     0.18110
H2385       H  0.67853478  0.94687524  0.27355391     0.18120
F2386       F  0.64007294  0.91941934  0.29260802    -0.19640
C2387       C  0.53709089  0.81997229  0.38726787    -0.21080
C2388       C  0.56105065  0.82560689  0.39959620    -0.09120
C2389       C  0.56424155  0.81922698  0.42594212     0.29740
C2390       C  0.54350055  0.80775763  0.43980583    -0.21080
C2391       C  0.51923219  0.80261501  0.42764391    -0.09130
C2392       C  0.51623970  0.80885017  0.40115972     0.29740
F2393       F  0.49274338  0.80539474  0.38901295    -0.19660
H2394       H  0.53423418  0.82499291  0.36701127     0.18110
H2395       H  0.54633139  0.80298086  0.46011280     0.18120
F2396       F  0.58755621  0.82363612  0.43809134    -0.19640
C2397       C  0.54098633  0.94856142  0.31736116    -0.21080
C2398       C  0.51755394  0.93657299  0.30921991    -0.09120
C2399       C  0.51626171  0.90904513  0.31000064     0.29740
C2400       C  0.53799283  0.89410161  0.31815999    -0.21080
C2401       C  0.56113466  0.90612684  0.32659893    -0.09130
C2402       C  0.56251104  0.93352041  0.32620013     0.29740
F2403       F  0.58480513  0.94570245  0.33400869    -0.19660
H2404       H  0.54271050  0.96959098  0.31676029     0.18110
H2405       H  0.53632292  0.87305419  0.31893190     0.18120
F2406       F  0.49361213  0.89647140  0.30398802    -0.19640
C2407       C  0.42816177  0.95931272  0.23103602    -0.21080
C2408       C  0.43927154  0.94420317  0.25117865    -0.09120
C2409       C  0.43462626  0.91717587  0.25172457     0.29740
C2410       C  0.42073752  0.90536375  0.23171887    -0.21080
C2411       C  0.41048021  0.92022925  0.21114109    -0.09130
C2412       C  0.41367531  0.94745376  0.21119788     0.29740
F2413       F  0.40392141  0.96235919  0.19152963    -0.19660
H2414       H  0.43134265  0.98016062  0.23026954     0.18110
H2415       H  0.41786463  0.88445258  0.23236381     0.18120
F2416       F  0.44330336  0.90213336  0.27177015    -0.19640
C2417       C  0.45369314  0.01532117  0.34472043    -0.21080
C2418       C  0.45455806  0.01387681  0.31743761    -0.09120
C2419       C  0.44436356  0.03501296  0.30289067     0.29740
C2420       C  0.43153059  0.05583858  0.31526300    -0.21080
C2421       C  0.42918670  0.05650594  0.34239553    -0.09130
C2422       C  0.44126659  0.03654065  0.35715530     0.29740
F2423       F  0.43936952  0.03653357  0.38344642    -0.19660
H2424       H  0.46138133  0.99938026  0.35641985     0.18110
H2425       H  0.42285464  0.07127971  0.30353562     0.18120
F2426       F  0.44629878  0.03529719  0.27659662    -0.19640
C2427       C  0.41194710  0.70554265  0.44142832    -0.21080
C2428       C  0.40918851  0.70305680  0.41447417    -0.09120
C2429       C  0.42260344  0.72046063  0.39809042     0.29740
C2430       C  0.43816166  0.74021365  0.40855638    -0.21080
C2431       C  0.44132443  0.74268338  0.43559374    -0.09130
C2432       C  0.42817669  0.72480013  0.45194559     0.29740
F2433       F  0.43166732  0.72523111  0.47805407    -0.19660
H2434       H  0.40212586  0.69202522  0.45435584     0.18110
H2435       H  0.44748762  0.75380381  0.39537559     0.18120
F2436       F  0.42007951  0.71882464  0.37191298    -0.19640
C2437       C  0.24023100  0.83722338  0.31860196    -0.21080
C2438       C  0.23890357  0.81006052  0.31538251    -0.09120
C2439       C  0.21854116  0.79625441  0.32790840     0.29740
C2440       C  0.20019469  0.80946964  0.34354329    -0.21080
C2441       C  0.20145649  0.83660717  0.34632029    -0.09130
C2442       C  0.22153569  0.85044416  0.33364633     0.29740
F2443       F  0.22348599  0.87670112  0.33632953    -0.19660
H2444       H  0.25603375  0.84828346  0.30979570     0.18110
H2445       H  0.18454371  0.79861839  0.35288934     0.18120
F2446       F  0.21592662  0.77015588  0.32453479    -0.19640
C2447       C  0.30345216  0.69891935  0.33363400    -0.21080
C2448       C  0.33108515  0.69845612  0.33571744    -0.09120
C2449       C  0.34604100  0.71705611  0.32229684     0.29740
C2450       C  0.33326941  0.73687440  0.30829707    -0.21080
C2451       C  0.30546755  0.73807725  0.30710875    -0.09130
C2452       C  0.29070384  0.71828838  0.31913847     0.29740
F2453       F  0.26392442  0.71788768  0.31722627    -0.19660
H2454       H  0.29170314  0.68434717  0.34347405     0.18110
H2455       H  0.34511776  0.75197360  0.29945598     0.18120
F2456       F  0.37283188  0.71709990  0.32414635    -0.19640
C2457       C  0.30492608  0.84074911  0.20625815    -0.21080
C2458       C  0.33248129  0.84310931  0.20808429    -0.09120
C2459       C  0.34616100  0.82999584  0.22799512     0.29740
C2460       C  0.33250601  0.81463364  0.24569486    -0.21080
C2461       C  0.30499390  0.81183421  0.24380441    -0.09130
C2462       C  0.29121287  0.82504270  0.22388877     0.29740
F2463       F  0.26469100  0.82229452  0.22112703    -0.19660
H2464       H  0.29416973  0.85044677  0.19076065     0.18110
H2465       H  0.34345300  0.80529239  0.26127875     0.18120
F2466       F  0.37273425  0.83248367  0.23067224    -0.19640
C2467       C  0.43743900  0.02168348  0.09223466    -0.21080
C2468       C  0.45318087  0.03330100  0.07305290    -0.09120
C2469       C  0.45452208  0.06054170  0.07163588     0.29740
C2470       C  0.43861366  0.07595584  0.08786431    -0.21080
C2471       C  0.42120919  0.06440428  0.10578873    -0.09130
C2472       C  0.42174999  0.03707210  0.10875541     0.29740
F2473       F  0.40541814  0.02507760  0.12587906    -0.19660
H2474       H  0.43587961  0.00062757  0.09317525     0.18110
H2475       H  0.43887139  0.09694934  0.08542660     0.18120
F2476       F  0.46935451  0.07215613  0.05298328    -0.19640
C2477       C  0.59021050  0.05885817  0.94654990    -0.21080
C2478       C  0.56316659  0.06344781  0.95153455    -0.09120
C2479       C  0.54971916  0.08288296  0.93720067     0.29740
C2480       C  0.56308829  0.09681883  0.91789932    -0.21080
C2481       C  0.58986815  0.09139851  0.91242348    -0.09130
C2482       C  0.60338762  0.07246163  0.92721950     0.29740
F2483       F  0.62942240  0.06696028  0.92313552    -0.19660
H2484       H  0.60128765  0.04414674  0.95722019     0.18110
H2485       H  0.55230139  0.11142005  0.90681093     0.18120
F2486       F  0.52360990  0.08794856  0.94121241    -0.19640
C2487       C  0.55679778  0.94268593  0.09234564    -0.21080
C2488       C  0.56016071  0.94438949  0.06541084    -0.09120
C2489       C  0.57635806  0.92575380  0.05266137     0.29740
C2490       C  0.58993707  0.90671248  0.06673826    -0.21080
C2491       C  0.58737177  0.90544658  0.09372091    -0.09130
C2492       C  0.57037616  0.92336263  0.10650064     0.29740
F2493       F  0.56775146  0.92290969  0.13272628    -0.19660
H2494       H  0.54444093  0.95678121  0.10246788     0.18110
H2495       H  0.60241436  0.89282137  0.05645557     0.18120
F2496       F  0.57897872  0.92579626  0.02639949    -0.19640
C2497       C  0.45515223  0.92427220  0.07361498    -0.21080
C2498       C  0.44082725  0.93595267  0.05318449    -0.09120
C2499       C  0.41291418  0.93585924  0.05420651     0.29740
C2500       C  0.39993545  0.92576758  0.07588989    -0.21080
C2501       C  0.41438939  0.91519363  0.09664798    -0.09130
C2502       C  0.44210317  0.91395250  0.09512564     0.29740
F2503       F  0.45663725  0.90393815  0.11499902    -0.19660
H2504       H  0.47658709  0.92422948  0.07359390     0.18110
H2505       H  0.37850048  0.92624043  0.07647198     0.18120
F2506       F  0.39805177  0.94677205  0.03503603    -0.19640
C2507       C  0.41450349  0.06632240  0.95663163    -0.21080
C2508       C  0.43968468  0.05754022  0.94834985    -0.09120
C2509       C  0.44969313  0.06682617  0.92462644     0.29740
C2510       C  0.43475935  0.08436155  0.90966585    -0.21080
C2511       C  0.40959507  0.09313779  0.91797155    -0.09130
C2512       C  0.39962034  0.08390244  0.94172785     0.29740
F2513       F  0.37545753  0.09163237  0.95059758    -0.19660
H2514       H  0.40615541  0.05958467  0.97480427     0.18110
H2515       H  0.44308625  0.09118069  0.89151679     0.18120
F2516       F  0.47385121  0.05906344  0.91579063    -0.19640
C2517       C  0.07442416  0.80725180  0.20128444    -0.21080
C2518       C  0.04932752  0.80083395  0.19190999    -0.09120
C2519       C  0.04254923  0.80761041  0.16634508     0.29740
C2520       C  0.06003770  0.82223241  0.15108459    -0.21080
C2521       C  0.08459059  0.83022437  0.16106212    -0.09130
C2522       C  0.09204481  0.82151646  0.18603239     0.29740
F2523       F  0.11562276  0.82814938  0.19652466    -0.19660
H2524       H  0.07982430  0.80241756  0.22108455     0.18110
H2525       H  0.05373961  0.82842835  0.13193617     0.18120
F2526       F  0.01814173  0.80218724  0.15700686    -0.19640
C2527       C  0.95042042  0.67828176  0.34800466    -0.21080
C2528       C  0.92690901  0.66943746  0.33644064    -0.09120
C2529       C  0.91982695  0.67933454  0.31184926     0.29740
C2530       C  0.93696880  0.69581322  0.29841686    -0.21080
C2531       C  0.96117777  0.70311166  0.30930494    -0.09130
C2532       C  0.96745132  0.69494085  0.33455297     0.29740
F2533       F  0.99113512  0.70102359  0.34518498    -0.19660
H2534       H  0.95634253  0.67130749  0.36700801     0.18110
H2535       H  0.93212081  0.70157523  0.27872054     0.18120
F2536       F  0.89715729  0.67196875  0.30003076    -0.19640
C2537       C  0.93799041  0.65345948  0.17370853    -0.21080
C2538       C  0.91997176  0.66786147  0.15862922    -0.09120
C2539       C  0.92346128  0.69501580  0.15598133     0.29740
C2540       C  0.94388577  0.70750010  0.16927423    -0.21080
C2541       C  0.96109344  0.69317019  0.18538268    -0.09130
C2542       C  0.95839416  0.66581311  0.18678344     0.29740
F2543       F  0.97512324  0.65089887  0.20132451    -0.19660
H2544       H  0.93618485  0.63249844  0.17559964     0.18110
H2545       H  0.94546965  0.72849935  0.16790010     0.18120
F2546       F  0.90644719  0.70971333  0.14158487    -0.19640
C2547       C  0.07022380  0.82868805  0.30618499    -0.21080
C2548       C  0.05291387  0.81058824  0.31748117    -0.09120
C2549       C  0.05530857  0.80503921  0.34413855     0.29740
C2550       C  0.07425573  0.81810567  0.35912567    -0.21080
C2551       C  0.09095152  0.83679132  0.34768370    -0.09130
C2552       C  0.08891354  0.84156206  0.32089806     0.29740
F2553       F  0.10532852  0.85838209  0.30858837    -0.19660
H2554       H  0.06946457  0.83295577  0.28558377     0.18110
H2555       H  0.07558039  0.81394148  0.37970619     0.18120
F2556       F  0.03899933  0.78770121  0.35577929    -0.19640
C2557       C  0.09128425  0.69398676  0.35163995    -0.21080
C2558       C  0.09317217  0.66664826  0.35100864    -0.09120
C2559       C  0.08423325  0.65330016  0.32909182     0.29740
C2560       C  0.07268667  0.66701256  0.30853576    -0.21080
C2561       C  0.06927610  0.69433753  0.30955473    -0.09130
C2562       C  0.07915635  0.70778840  0.33128167     0.29740
F2563       F  0.07635144  0.73407349  0.33338394    -0.19660
H2564       H  0.09840780  0.70458413  0.36834083     0.18110
H2565       H  0.06546602  0.65593819  0.29220333     0.18120
F2566       F  0.08683714  0.62695452  0.32746953    -0.19640
C2567       C  0.84501737  0.70862285  0.43884704    -0.21080
C2568       C  0.81808213  0.71393898  0.43395352    -0.09120
C2569       C  0.80489920  0.69901127  0.41525105     0.29740
C2570       C  0.81831168  0.67858343  0.40260502    -0.21080
C2571       C  0.84487366  0.67259025  0.40861394    -0.09130
C2572       C  0.85821335  0.68815719  0.42657597     0.29740
F2573       F  0.88407443  0.68371748  0.43238332    -0.19660
H2574       H  0.85592638  0.71990834  0.45288048     0.18110
H2575       H  0.80768475  0.66699245  0.38861573     0.18120
F2576       F  0.77893569  0.70337646  0.40991828    -0.19640
C2577       C  0.70912737  0.81015850  0.42341185    -0.21080
C2578       C  0.69948011  0.78608169  0.43198741    -0.09120
C2579       C  0.67662208  0.77587869  0.42040778     0.29740
C2580       C  0.66291820  0.79016535  0.40155865    -0.21080
C2581       C  0.67129332  0.81513648  0.39454389    -0.09130
C2582       C  0.69486387  0.82485753  0.40508656     0.29740
F2583       F  0.70347126  0.84894432  0.39837852    -0.19660
H2584       H  0.72671480  0.81826451  0.43205657     0.18110
H2585       H  0.64465850  0.78252042  0.39385496     0.18120
F2586       F  0.66693684  0.75248665  0.42808079    -0.19640
C2587       C  0.66643715  0.81510040  0.55164031    -0.21080
C2588       C  0.69329776  0.80991532  0.55668840    -0.09120
C2589       C  0.70670414  0.82574332  0.57450501     0.29740
C2590       C  0.69358864  0.84676186  0.58630032    -0.21080
C2591       C  0.66696212  0.85236858  0.58055488    -0.09130
C2592       C  0.65335695  0.83601610  0.56338301     0.29740
F2593       F  0.62731146  0.83994978  0.55805780    -0.19660
H2594       H  0.65547548  0.80309401  0.53825909     0.18110
H2595       H  0.70442700  0.85889993  0.59965588     0.18120
F2596       F  0.73261622  0.82148774  0.57999403    -0.19640
C2597       C  0.68551797  0.66741642  0.45871737    -0.21080
C2598       C  0.69992224  0.68883009  0.44935668    -0.09120
C2599       C  0.69790817  0.69542180  0.42284977     0.29740
C2600       C  0.68121723  0.68147072  0.40640098    -0.21080
C2601       C  0.66677278  0.66022742  0.41577496    -0.09130
C2602       C  0.66954759  0.65282737  0.44193856     0.29740
F2603       F  0.65617559  0.63204596  0.45140218    -0.19660
H2604       H  0.68640018  0.66220887  0.47909070     0.18110
H2605       H  0.67959178  0.68723906  0.38620472     0.18120
F2606       F  0.71082705  0.71639345  0.41314844    -0.19640
C2607       C  0.81187231  0.73276148  0.58618838    -0.21080
C2608       C  0.80630883  0.72401361  0.56101408    -0.09120
C2609       C  0.81441126  0.69890980  0.55354824     0.29740
C2610       C  0.82920334  0.68333604  0.57041139    -0.21080
C2611       C  0.83675194  0.69262287  0.59496499    -0.09130
C2612       C  0.82708898  0.71721957  0.60313148     0.29740
F2613       F  0.83334128  0.72680194  0.62683758    -0.19660
H2614       H  0.80601667  0.75228189  0.59205706     0.18110
H2615       H  0.83591032  0.66442597  0.56354124     0.18120
F2616       F  0.80929484  0.69004491  0.52927120    -0.19640
C2617       C  0.17763683  0.05040031  0.82005084    -0.21080
C2618       C  0.19322636  0.06395748  0.80198434    -0.09120
C2619       C  0.19676135  0.09101860  0.80528918     0.29740
C2620       C  0.18553090  0.10392519  0.82639977    -0.21080
C2621       C  0.17020004  0.09045463  0.84456157    -0.09130
C2622       C  0.16585032  0.06359826  0.84101412     0.29740
F2623       F  0.15112275  0.04994075  0.85829743    -0.19660
H2624       H  0.17499198  0.02954772  0.81820254     0.18110
H2625       H  0.18891544  0.12464282  0.82855157     0.18120
F2626       F  0.21243490  0.10492164  0.78901587    -0.19640
C2627       C  0.22991864  0.94662548  0.66026922    -0.21080
C2628       C  0.22005032  0.95893409  0.68261538    -0.09120
C2629       C  0.19349209  0.95550054  0.68964363     0.29740
C2630       C  0.17764620  0.93838529  0.67569661    -0.21080
C2631       C  0.18808071  0.92416499  0.65461480    -0.09130
C2632       C  0.21409390  0.92943546  0.64622701     0.29740
F2633       F  0.22499987  0.91657161  0.62575514    -0.19660
H2634       H  0.25059366  0.94851319  0.65503703     0.18110
H2635       H  0.15760469  0.93519068  0.68237617     0.18120
F2636       F  0.18364226  0.96683053  0.71148156    -0.19640
C2637       C  0.32273167  0.05829678  0.66952918    -0.21080
C2638       C  0.30526532  0.07030792  0.68707761    -0.09120
C2639       C  0.30639881  0.09759334  0.69057238     0.29740
C2640       C  0.32524459  0.11229504  0.67741910    -0.21080
C2641       C  0.34313391  0.10023730  0.66033637    -0.09130
C2642       C  0.34157334  0.07305604  0.65628999     0.29740
F2643       F  0.35893570  0.06050796  0.64035110    -0.19660
H2644       H  0.32252314  0.03734377  0.66683677     0.18110
H2645       H  0.32577303  0.13317547  0.68054976     0.18120
F2646       F  0.28936812  0.11013320  0.70687986    -0.19640
C2647       C  0.33601460  0.90903795  0.66672479    -0.21080
C2648       C  0.35773513  0.92145244  0.65532694    -0.09120
C2649       C  0.36343244  0.94728330  0.66275477     0.29740
C2650       C  0.34735151  0.96025143  0.68108310    -0.21080
C2651       C  0.32578790  0.94746661  0.69250399    -0.09130
C2652       C  0.32025244  0.92173121  0.68490533     0.29740
F2653       F  0.29877541  0.90898829  0.69419138    -0.19660
H2654       H  0.33085250  0.88931459  0.66141156     0.18110
H2655       H  0.35175125  0.98016771  0.68637276     0.18120
F2656       F  0.38417473  0.96011357  0.65215325    -0.19640
C2657       C  0.33801303  0.07248831  0.82040259    -0.21080
C2658       C  0.32715650  0.08787355  0.84044526    -0.09120
C2659       C  0.30023527  0.08471722  0.84705173     0.29740
C2660       C  0.28428939  0.06820796  0.83247369    -0.21080
C2661       C  0.29485817  0.05429982  0.81143646    -0.09130
C2662       C  0.32199062  0.05585090  0.80597169     0.29740
F2663       F  0.33248001  0.04298609  0.78529222    -0.19660
H2664       H  0.35865161  0.07425637  0.81505008     0.18110
H2665       H  0.26322009  0.06773407  0.83642557     0.18120
F2666       F  0.28870155  0.09902174  0.86622766    -0.19640
C2667       C  0.08752108  0.46311813  0.07739713    -0.21080
C2668       C  0.08251526  0.45962851  0.05071423    -0.09120
C2669       C  0.09410730  0.43779681  0.03825493     0.29740
C2670       C  0.10918540  0.41952351  0.05252396    -0.21080
C2671       C  0.11245871  0.42235925  0.07947075    -0.09130
C2672       C  0.10199301  0.44465976  0.09162778     0.29740
F2673       F  0.10546626  0.44846852  0.11746391    -0.19660
H2674       H  0.07909115  0.47958907  0.08777732     0.18110
H2675       H  0.11724682  0.40250446  0.04274020     0.18120
F2676       F  0.09021677  0.43358159  0.01257292    -0.19640
C2677       C  0.04187327  0.59049461  0.93989451    -0.21080
C2678       C  0.04983224  0.56498436  0.94623012    -0.09120
C2679       C  0.07435880  0.55548546  0.93718159     0.29740
C2680       C  0.08952871  0.57038736  0.92020842    -0.21080
C2681       C  0.08046951  0.59498400  0.91173590    -0.09130
C2682       C  0.05701437  0.60546203  0.92272454     0.29740
F2683       F  0.04787660  0.62951130  0.91587008    -0.19660
H2684       H  0.02287053  0.59800274  0.94644694     0.18110
H2685       H  0.10772840  0.56198048  0.91264060     0.18120
F2686       F  0.08271160  0.53094775  0.94329411    -0.19640
C2687       C  0.91754382  0.56690060  0.08113142    -0.21080
C2688       C  0.91504483  0.59407760  0.07904485    -0.09120
C2689       C  0.93288662  0.60782962  0.06319927     0.29740
C2690       C  0.95338493  0.59443877  0.05032016    -0.21080
C2691       C  0.95637831  0.56735105  0.05337814    -0.09130
C2692       C  0.93788123  0.55362474  0.06844374     0.29740
F2693       F  0.93930554  0.52723741  0.07080590    -0.19660
H2694       H  0.90379644  0.55584099  0.09285971     0.18110
H2695       H  0.96741042  0.60528611  0.03873266     0.18120
F2696       F  0.93134945  0.63421138  0.06120942    -0.19640
C2697       C  0.06687218  0.42180423  0.94953919    -0.21080
C2698       C  0.04958344  0.43809193  0.93537961    -0.09120
C2699       C  0.05318925  0.44033864  0.90826052     0.29740
C2700       C  0.07476542  0.42845678  0.89621461    -0.21080
C2701       C  0.09295060  0.41356523  0.91057154    -0.09130
C2702       C  0.08837262  0.40948641  0.93723714     0.29740
F2703       F  0.10531393  0.39471344  0.95163747    -0.19660
H2704       H  0.06454486  0.41963063  0.97032026     0.18110
H2705       H  0.07732042  0.43110690  0.87548167     0.18120
F2706       F  0.03658458  0.45498756  0.89331924    -0.19640
C2707       C  0.93380495  0.43321856  0.06622303    -0.21080
C2708       C  0.94541027  0.41474858  0.08309688    -0.09120
C2709       C  0.97307452  0.41100431  0.08251438     0.29740
C2710       C  0.98876970  0.42676986  0.06673148    -0.21080
C2711       C  0.97716233  0.44600328  0.05094862    -0.09130
C2712       C  0.94955843  0.44869556  0.05016910     0.29740
F2713       F  0.93800986  0.46749734  0.03527327    -0.19660
H2714       H  0.91257076  0.43634155  0.06613571     0.18110
H2715       H  0.01012188  0.42484174  0.06775232     0.18120
F2716       F  0.98516594  0.39350504  0.09851576    -0.19640
C2717       C  0.18921086  0.81839714  0.09217122    -0.21080
C2718       C  0.16921237  0.83394190  0.08079179    -0.09120
C2719       C  0.16705398  0.83449453  0.05356752     0.29740
C2720       C  0.18566080  0.82129002  0.03821075    -0.21080
C2721       C  0.20660795  0.80703233  0.04956206    -0.09130
C2722       C  0.20764274  0.80486899  0.07675276     0.29740
F2723       F  0.22754107  0.79133634  0.08848546    -0.19660
H2724       H  0.19120281  0.81749550  0.11308662     0.18110
H2725       H  0.18428793  0.82309700  0.01728993     0.18120
F2726       F  0.14819913  0.84930267  0.04166044    -0.19640
C2727       C  0.18681768  0.66873944  0.94886506    -0.21080
C2728       C  0.18762498  0.69608091  0.94959629    -0.09120
C2729       C  0.17241034  0.71064468  0.93170915     0.29740
C2730       C  0.15743769  0.69787831  0.91290017    -0.21080
C2731       C  0.15794851  0.67053622  0.91132748    -0.09130
C2732       C  0.17236780  0.65604759  0.92983252     0.29740
F2733       F  0.17278056  0.62955375  0.92940043    -0.19660
H2734       H  0.19846303  0.65706421  0.96228540     0.18110
H2735       H  0.14629190  0.70937302  0.89894218     0.18120
F2736       F  0.17239490  0.73712991  0.93208626    -0.19640
C2737       C  0.30891065  0.66913137  0.95672445    -0.21080
C2738       C  0.29915148  0.69373026  0.94857799    -0.09120
C2739       C  0.30907608  0.70434937  0.92526308     0.29740
C2740       C  0.32707867  0.68989683  0.90994761    -0.21080
C2741       C  0.33608318  0.66513400  0.91805874    -0.09130
C2742       C  0.32714513  0.65507245  0.94175743     0.29740
F2743       F  0.33482478  0.63085430  0.94969576    -0.19660
H2744       H  0.30201946  0.66032684  0.97460587     0.18110
H2745       H  0.33377692  0.69788467  0.89161623     0.18120
F2746       F  0.30084202  0.72819313  0.91683592    -0.19640
C2747       C  0.32454230  0.69194407  0.05391477    -0.21080
C2748       C  0.30296934  0.70355631  0.06681552    -0.09120
C2749       C  0.30222287  0.70352820  0.09406922     0.29740
C2750       C  0.32226595  0.69051281  0.10805046    -0.21080
C2751       C  0.34293975  0.67747125  0.09482875    -0.09130
C2752       C  0.34435798  0.67909537  0.06769782     0.29740
F2753       F  0.36486695  0.66805467  0.05444784    -0.19660
H2754       H  0.32571110  0.69228538  0.03289697     0.18110
H2755       H  0.32102712  0.68960446  0.12902934     0.18120
F2756       F  0.28146802  0.71451694  0.10695850    -0.19640
C2757       C  0.30725635  0.84263516  0.06067872    -0.21080
C2758       C  0.31406171  0.81660967  0.05498358    -0.09120
C2759       C  0.33352777  0.80388679  0.06999668     0.29740
C2760       C  0.34562615  0.81700934  0.09047121    -0.21080
C2761       C  0.33824262  0.84282750  0.09656621    -0.09130
C2762       C  0.31900360  0.85559693  0.08126997     0.29740
F2763       F  0.31140302  0.88062789  0.08608569    -0.19660
H2764       H  0.29207510  0.85283642  0.04968588     0.18110
H2765       H  0.36050955  0.80678811  0.10181296     0.18120
F2766       F  0.34081562  0.77882277  0.06498967    -0.19640
C2767       C  0.46500432  0.68120966  0.67191712    -0.21080
C2768       C  0.46413250  0.68565491  0.69889437    -0.09120
C2769       C  0.44348638  0.67449836  0.71347763     0.29740
C2770       C  0.42339260  0.66075268  0.70089880    -0.21080
C2771       C  0.42334524  0.65843541  0.67370652    -0.09130
C2772       C  0.44474714  0.66805866  0.65942090     0.29740
F2773       F  0.44595322  0.66497499  0.63326748    -0.19660
H2774       H  0.48077715  0.68913421  0.66012045     0.18110
H2775       H  0.40717244  0.65305621  0.71225329     0.18120
F2776       F  0.44166469  0.67832381  0.73949267    -0.19640
C2777       C  0.47878314  0.83840971  0.68624252    -0.21080
C2778       C  0.46865360  0.81483977  0.69569464    -0.09120
C2779       C  0.44292816  0.80758589  0.68888086     0.29740
C2780       C  0.42837141  0.82264574  0.67132886    -0.21080
C2781       C  0.43927494  0.84508100  0.65994524    -0.09130
C2782       C  0.46430045  0.85344473  0.66838358     0.29740
F2783       F  0.47551390  0.87517743  0.65830751    -0.19660
H2784       H  0.49876518  0.84409338  0.69102968     0.18110
H2785       H  0.40895923  0.81595713  0.66575656     0.18120
F2786       F  0.43248625  0.78506584  0.69805140    -0.19640
C2787       C  0.45996182  0.69310548  0.82767527    -0.21080
C2788       C  0.44753915  0.71132752  0.81131065    -0.09120
C2789       C  0.42011200  0.70984928  0.80724177     0.29740
C2790       C  0.40537468  0.69041766  0.81972942    -0.21080
C2791       C  0.41788888  0.67219390  0.83624396    -0.09130
C2792       C  0.44546141  0.67358292  0.83979942     0.29740
F2793       F  0.45865012  0.65557412  0.85437426    -0.19660
H2794       H  0.48118150  0.69358828  0.83056491     0.18110
H2795       H  0.38418930  0.68979705  0.81674331     0.18120
F2796       F  0.40755741  0.72754672  0.79181611    -0.19640
C2797       C  0.54364653  0.68356989  0.80991427    -0.21080
C2798       C  0.55261311  0.70780350  0.80104526    -0.09120
C2799       C  0.57851389  0.71540357  0.80707638     0.29740
C2800       C  0.59448259  0.69979315  0.82305960    -0.21080
C2801       C  0.58490882  0.67638986  0.83360751    -0.09130
C2802       C  0.55949774  0.66802067  0.82619000     0.29740
F2803       F  0.54924253  0.64561365  0.83579151    -0.19660
H2804       H  0.52363280  0.67752068  0.80578835     0.18110
H2805       H  0.61403882  0.70660100  0.82796679     0.18120
F2806       F  0.58798030  0.73852472  0.79837591    -0.19640
C2807       C  0.57591892  0.80919732  0.65918521    -0.21080
C2808       C  0.56971547  0.81264134  0.68560162    -0.09120
C2809       C  0.57442626  0.83695841  0.69719115     0.29740
C2810       C  0.58617321  0.85693757  0.68298876    -0.21080
C2811       C  0.59214506  0.85347036  0.65668227    -0.09130
C2812       C  0.58685787  0.82954018  0.64472846     0.29740
F2813       F  0.59267231  0.82574340  0.61925718    -0.19660
H2814       H  0.57184415  0.79088494  0.64962793     0.18110
H2815       H  0.58969087  0.87552476  0.69226375     0.18120
F2816       F  0.56564822  0.84222016  0.72148499    -0.19640
C2817       C  0.16454085  0.21131347  0.43656212    -0.21080
C2818       C  0.18534137  0.19917355  0.45030533    -0.09120
C2819       C  0.19225442  0.17326532  0.44469812     0.29740
C2820       C  0.17862251  0.15979638  0.42555290    -0.21080
C2821       C  0.15806509  0.17198111  0.41138860    -0.09130
C2822       C  0.15108162  0.19796307  0.41714121     0.29740
F2823       F  0.13185797  0.21073614  0.40363057    -0.19660
H2824       H  0.15917954  0.23147749  0.44036429     0.18110
H2825       H  0.18436612  0.13974301  0.42173816     0.18120
F2826       F  0.21191490  0.16086050  0.45793618    -0.19640
C2827       C  0.30947964  0.21768429  0.57922873    -0.21080
C2828       C  0.30511241  0.21116980  0.55318945    -0.09120
C2829       C  0.31601985  0.18771959  0.54344252     0.29740
C2830       C  0.33302160  0.17254432  0.55863952    -0.21080
C2831       C  0.33957661  0.18033589  0.58386517    -0.09130
C2832       C  0.32658741  0.20242628  0.59453270     0.29740
F2833       F  0.33127677  0.21004052  0.61929587    -0.19660
H2834       H  0.30130219  0.23561598  0.58714627     0.18110
H2835       H  0.34214283  0.15537785  0.55005794     0.18120
F2836       F  0.31163302  0.18031173  0.51854766    -0.19640
C2837       C  0.31020312  0.33516850  0.56182570    -0.21080
C2838       C  0.32085607  0.31335509  0.54903064    -0.09120
C2839       C  0.34678141  0.30482555  0.55529681     0.29740
C2840       C  0.36154769  0.31797573  0.57381992    -0.21080
C2841       C  0.35098164  0.33987090  0.58650698    -0.09130
C2842       C  0.32506786  0.34841272  0.58030316     0.29740
F2843       F  0.31374602  0.36923696  0.59241386    -0.19660
H2844       H  0.29025903  0.34190115  0.55766377     0.18110
H2845       H  0.38130483  0.31089533  0.57827705     0.18120
F2846       F  0.35770325  0.28318186  0.54427131    -0.19640
C2847       C  0.15103674  0.31427674  0.43749993    -0.21080
C2848       C  0.16304846  0.33243765  0.42126308    -0.09120
C2849       C  0.19078325  0.33249349  0.41863521     0.29740
C2850       C  0.20637325  0.31487138  0.43317040    -0.21080
C2851       C  0.19415336  0.29733332  0.45025398    -0.09130
C2852       C  0.16634682  0.29687667  0.45185545     0.29740
F2853       F  0.15391797  0.27962532  0.46765168    -0.19660
H2854       H  0.12966292  0.31369593  0.43917979     0.18110
H2855       H  0.22774082  0.31547341  0.43176025     0.18120
F2856       F  0.20262784  0.34970589  0.40239754    -0.19640
C2857       C  0.31788225  0.15841059  0.42964004    -0.21080
C2858       C  0.33081359  0.16346003  0.40613700    -0.09120
C2859       C  0.32706238  0.18783202  0.39393233     0.29740
C2860       C  0.31170187  0.20739256  0.40597902    -0.21080
C2861       C  0.29925197  0.20248336  0.42984530    -0.09130
C2862       C  0.30203247  0.17763860  0.44128908     0.29740
F2863       F  0.29090778  0.17263831  0.46477974    -0.19660
H2864       H  0.32051805  0.13972522  0.43923959     0.18110
H2865       H  0.31062219  0.22668298  0.39738246     0.18120
F2866       F  0.33968405  0.19324243  0.37128708    -0.19640
C2867       C  0.15846378  0.31407772  0.59905548    -0.21080
C2868       C  0.16934797  0.33826846  0.60497302    -0.09120
C2869       C  0.19630328  0.34250057  0.59956131     0.29740
C2870       C  0.21146822  0.32341016  0.58642378    -0.21080
C2871       C  0.20000595  0.29972535  0.57891341    -0.09130
C2872       C  0.17363010  0.29484845  0.58661676     0.29740
F2873       F  0.16188217  0.27194687  0.58066127    -0.19660
H2874       H  0.13792243  0.31025600  0.60360503     0.18110
H2875       H  0.23147950  0.32792441  0.58048998     0.18120
F2876       F  0.20736953  0.36579059  0.60522885    -0.19640
C2877       C  0.19354393  0.44303734  0.20429054    -0.21080
C2878       C  0.21761468  0.45323016  0.19566160    -0.09120
C2879       C  0.22580435  0.44830945  0.16999041     0.29740
C2880       C  0.21085554  0.43192249  0.15393204    -0.21080
C2881       C  0.18746104  0.42038867  0.16320189    -0.09130
C2882       C  0.17855329  0.42698416  0.18839429     0.29740
F2883       F  0.15613942  0.41670042  0.19852796    -0.19660
H2884       H  0.18705101  0.44631300  0.22410309     0.18110
H2885       H  0.21812438  0.42747246  0.13463021     0.18120
F2886       F  0.24929131  0.45746097  0.16122422    -0.19640
C2887       C  0.30965696  0.55885874  0.17315624    -0.21080
C2888       C  0.30237182  0.56693221  0.19820954    -0.09120
C2889       C  0.31481736  0.58897233  0.20891318     0.29740
C2890       C  0.33395930  0.60239521  0.19487824    -0.21080
C2891       C  0.34135495  0.59435810  0.16988419    -0.09130
C2892       C  0.32885364  0.57242977  0.15903072     0.29740
F2893       F  0.33504925  0.56401453  0.13478028    -0.19660
H2894       H  0.30045809  0.54204730  0.16444244     0.18110
H2895       H  0.34320231  0.61905670  0.20383090     0.18120
F2896       F  0.30907529  0.59740312  0.23328216    -0.19640
C2897       C  0.33166907  0.57403225  0.33130885    -0.21080
C2898       C  0.32024983  0.59078838  0.35000754    -0.09120
C2899       C  0.29273085  0.58967552  0.35434490     0.29740
C2900       C  0.27699474  0.57354875  0.33904793    -0.21080
C2901       C  0.28836258  0.55786951  0.31962315    -0.09130
C2902       C  0.31589092  0.55768873  0.31625785     0.29740
F2903       F  0.32726973  0.54319692  0.29713564    -0.19660
H2904       H  0.35276649  0.57429753  0.32759164     0.18110
H2905       H  0.25569437  0.57420304  0.34153008     0.18120
F2906       F  0.28071618  0.60535769  0.37212065    -0.19640
C2907       C  0.19776740  0.45584496  0.33993025    -0.21080
C2908       C  0.21626038  0.44145868  0.32528682    -0.09120
C2909       C  0.21443534  0.41402769  0.32472027     0.29740
C2910       C  0.19333818  0.40157323  0.33675661    -0.21080
C2911       C  0.17396081  0.41606210  0.35002131    -0.09130
C2912       C  0.17674786  0.44327892  0.35228061     0.29740
F2913       F  0.15830296  0.45791323  0.36499600    -0.19660
H2914       H  0.19862708  0.47691984  0.34049133     0.18110
H2915       H  0.19198016  0.38053674  0.33543352     0.18120
F2916       F  0.23251283  0.39924567  0.31164721    -0.19640
C2917       C  0.17949700  0.54285079  0.33488584    -0.21080
C2918       C  0.18446096  0.55550743  0.31105885    -0.09120
C2919       C  0.17542061  0.58151852  0.30787739     0.29740
C2920       C  0.16374179  0.59489982  0.32859402    -0.21080
C2921       C  0.16010486  0.58257280  0.35257235    -0.09130
C2922       C  0.16719325  0.55618688  0.35541718     0.29740
F2923       F  0.16363144  0.54380751  0.37847329    -0.19660
H2924       H  0.18620376  0.52298276  0.33809017     0.18110
H2925       H  0.15771435  0.61510293  0.32598941     0.18120
F2926       F  0.17896354  0.59462076  0.28522012    -0.19640
C2927       C  0.34584675  0.44867385  0.15795289    -0.21080
C2928       C  0.35084472  0.42178400  0.16040543    -0.09120
C2929       C  0.34417987  0.40895131  0.18347535     0.29740
C2930       C  0.33153935  0.42254573  0.20337828    -0.21080
C2931       C  0.32464558  0.44910276  0.20046794    -0.09130
C2932       C  0.33254613  0.46229681  0.17772918     0.29740
F2933       F  0.32604535  0.48778094  0.17385174    -0.19660
H2934       H  0.35110949  0.45881199  0.14022724     0.18110
H2935       H  0.32609539  0.41184943  0.22071540     0.18120
F2936       F  0.34970799  0.38314596  0.18667000    -0.19640
C2937       C  0.96728812  0.17014673  0.85274764    -0.21080
C2938       C  0.93993898  0.17486995  0.85442248    -0.09120
C2939       C  0.92861779  0.19546487  0.83987636     0.29740
C2940       C  0.94422627  0.20989185  0.82266109    -0.21080
C2941       C  0.97108365  0.20361987  0.81955987    -0.09130
C2942       C  0.98271273  0.18418300  0.83521981     0.29740
F2943       F  0.00878325  0.17795164  0.83259907    -0.19660
H2944       H  0.97642691  0.15439691  0.86371266     0.18110
H2945       H  0.93506757  0.22484951  0.81067746     0.18120
F2946       F  0.90235160  0.20102220  0.84165740    -0.19640
C2947       C  0.84365036  0.19260673  0.92896708    -0.21080
C2948       C  0.86016656  0.17267784  0.93889569    -0.09120
C2949       C  0.86012346  0.16783171  0.96582302     0.29740
C2950       C  0.84236744  0.18127478  0.98201881    -0.21080
C2951       C  0.82501999  0.20021258  0.97178657    -0.09130
C2952       C  0.82636309  0.20645359  0.94530688     0.29740
F2953       F  0.80956164  0.22450496  0.93494988    -0.19660
H2954       H  0.84336162  0.19674203  0.90833437     0.18110
H2955       H  0.84136713  0.17615402  0.00242468     0.18120
F2956       F  0.87561262  0.14868320  0.97620397    -0.19640
C2957       C  0.59976939  0.95751128  0.92749191    -0.21080
C2958       C  0.59103450  0.95202202  0.90250460    -0.09120
C2959       C  0.56486014  0.95850129  0.89540996     0.29740
C2960       C  0.54726150  0.96910157  0.91405661    -0.21080
C2961       C  0.55582443  0.97292219  0.93973304    -0.09130
C2962       C  0.58264808  0.96792078  0.94581679     0.29740
F2963       F  0.59257070  0.97288431  0.96976192    -0.19660
H2964       H  0.61995534  0.95290613  0.93313807     0.18110
H2965       H  0.52692858  0.97331377  0.90878063     0.18120
F2966       F  0.55604449  0.95329597  0.87113607    -0.19640
C2967       C  0.59464528  0.86238317  0.79814019    -0.21080
C2968       C  0.58829926  0.87320468  0.82231357    -0.09120
C2969       C  0.56383025  0.86765752  0.83390200     0.29740
C2970       C  0.54625030  0.85081341  0.82171732    -0.21080
C2971       C  0.55305620  0.83887759  0.79806118    -0.09130
C2972       C  0.57745899  0.84487987  0.78633518     0.29740
F2973       F  0.58613656  0.83155403  0.76522519    -0.19660
H2974       H  0.61383907  0.86583404  0.78944027     0.18110
H2975       H  0.52780597  0.84615774  0.83133863     0.18120
F2976       F  0.55738795  0.87783393  0.85742588    -0.19640
C2977       C  0.82611063  0.61322537  0.81100244    -0.21080
C2978       C  0.83772268  0.60790490  0.83502784    -0.09120
C2979       C  0.83734943  0.58252965  0.84521206     0.29740
C2980       C  0.82465470  0.56271898  0.83169387    -0.21080
C2981       C  0.81208486  0.56806290  0.80791231    -0.09130
C2982       C  0.81315991  0.59359909  0.79755447     0.29740
F2983       F  0.80049896  0.60010203  0.77519453    -0.19660
H2984       H  0.82638585  0.63281668  0.80304487     0.18110
H2985       H  0.82412342  0.54335503  0.84013653     0.18120
F2986       F  0.84928538  0.57697702  0.86818767    -0.19640
C2987       C  0.90456957  0.59577368  0.93735040    -0.21080
C2988       C  0.91426668  0.60731045  0.91434338    -0.09120
C2989       C  0.93932974  0.59930832  0.90508796     0.29740
C2990       C  0.95375167  0.57997689  0.91794234    -0.21080
C2991       C  0.94403377  0.56806459  0.94055000    -0.09130
C2992       C  0.91939843  0.57640882  0.95049995     0.29740
F2993       F  0.90937419  0.56543526  0.97236486    -0.19660
H2994       H  0.88547016  0.60162930  0.94509910     0.18110
H2995       H  0.97295673  0.57444758  0.91016190     0.18120
F2996       F  0.95025984  0.61015096  0.88356987    -0.19640
C2997       C  0.92260420  0.94626486  0.56935465    -0.21080
C2998       C  0.93101683  0.93282535  0.59174901    -0.09120
C2999       C  0.95802877  0.93291901  0.59831372     0.29740
C3000       C  0.97608398  0.94668505  0.58318517    -0.21080
C3001       C  0.96780457  0.96007399  0.56084515    -0.09130
C3002       C  0.94096361  0.95953514  0.55373681     0.29740
F3003       F  0.93238993  0.97274956  0.53243530    -0.19660
H3004       H  0.90190561  0.94641184  0.56396499     0.18110
H3005       H  0.99663161  0.94719182  0.58911479     0.18120
F3006       F  0.96682638  0.92065132  0.62009492    -0.19640
C3007       C  0.85108503  0.85599163  0.56121544    -0.21080
C3008       C  0.84067114  0.86024669  0.58607893    -0.09120
C3009       C  0.81531402  0.85090739  0.59202791     0.29740
C3010       C  0.80122026  0.83636445  0.57371639    -0.21080
C3011       C  0.81202325  0.83110838  0.54904392    -0.09130
C3012       C  0.83686697  0.84187780  0.54275270     0.29740
F3013       F  0.84781998  0.83820229  0.51892726    -0.19660
H3014       H  0.87042507  0.86339643  0.55617715     0.18110
H3015       H  0.78253735  0.82799508  0.57938987     0.18120
F3016       F  0.80488616  0.85449695  0.61609111    -0.19640
C3017       C  0.79571877  0.91893940  0.14966390    -0.21080
C3018       C  0.82236668  0.91569541  0.15650753    -0.09120
C3019       C  0.83189490  0.92787640  0.17902633     0.29740
C3020       C  0.81502896  0.94376409  0.19398451    -0.21080
C3021       C  0.78881899  0.94823073  0.18612231    -0.09130
C3022       C  0.77915493  0.93538189  0.16408303     0.29740
F3023       F  0.75382095  0.93932472  0.15612158    -0.19660
H3024       H  0.78809657  0.90987995  0.13228193     0.18110
H3025       H  0.82275746  0.95361604  0.21087221     0.18120
F3026       F  0.85755208  0.92476331  0.18623759    -0.19640
C3027       C  0.90705032  0.81293604  0.16229569    -0.21080
C3028       C  0.90844255  0.84028271  0.16026947    -0.09120
C3029       C  0.92457058  0.85380477  0.17772269     0.29740
C3030       C  0.93960635  0.84027359  0.19603195    -0.21080
C3031       C  0.93931318  0.81284296  0.19747047    -0.09130
C3032       C  0.92245634  0.79925113  0.18061308     0.29740
F3033       F  0.92105094  0.77285396  0.18154353    -0.19660
H3034       H  0.89463998  0.80207157  0.14917982     0.18110
H3035       H  0.95221845  0.85151537  0.20863090     0.18120
F3036       F  0.92603523  0.88023833  0.17710396    -0.19640
C3037       C  0.16695210  0.91964776  0.80624548    -0.21080
C3038       C  0.16836184  0.91713407  0.83323357    -0.09120
C3039       C  0.18877310  0.92973324  0.84681008     0.29740
C3040       C  0.20774178  0.94420110  0.83331713    -0.21080
C3041       C  0.20659246  0.94609643  0.80623065    -0.09130
C3042       C  0.18571844  0.93410494  0.79284632     0.29740
F3043       F  0.18342807  0.93641491  0.76666740    -0.19660
H3044       H  0.15113796  0.91057982  0.79550209     0.18110
H3045       H  0.22381749  0.95303670  0.84386453     0.18120
F3046       F  0.19102208  0.92716840  0.87294967    -0.19640
C3047       C  0.19142309  0.82111239  0.88829308    -0.21080
C3048       C  0.16916121  0.82995881  0.90241198    -0.09120
C3049       C  0.16651455  0.82312986  0.92859449     0.29740
C3050       C  0.18659713  0.80923568  0.94095378    -0.21080
C3051       C  0.20985321  0.80221135  0.92760443    -0.09130
C3052       C  0.21195770  0.80743557  0.90094109     0.29740
F3053       F  0.23438723  0.80107450  0.88774548    -0.19660
H3054       H  0.19354916  0.82608933  0.86794951     0.18110
H3055       H  0.18465419  0.80519236  0.96154365     0.18120
F3056       F  0.14474653  0.83047858  0.94239669    -0.19640
C3057       C  0.93531485  0.96937591  0.72451002    -0.21080
C3058       C  0.94562824  0.95377770  0.74471207    -0.09120
C3059       C  0.94350435  0.92639192  0.74256375     0.29740
C3060       C  0.93208559  0.91512234  0.72061457    -0.21080
C3061       C  0.92167413  0.93070313  0.70059310    -0.09130
C3062       C  0.92326750  0.95804333  0.70281257     0.29740
F3063       F  0.91358696  0.97384585  0.68380840    -0.19660
H3064       H  0.93674900  0.99041438  0.72537202     0.18110
H3065       H  0.93054672  0.89408064  0.71970973     0.18120
F3066       F  0.95143416  0.91037733  0.76215517    -0.19640
C3067       C  0.01337757  0.92117469  0.81577702    -0.21080
C3068       C  0.01364794  0.94858363  0.81533615    -0.09120
C3069       C  0.03473012  0.96150203  0.82756553     0.29740
C3070       C  0.05485806  0.94716265  0.83998515    -0.21080
C3071       C  0.05465815  0.91979562  0.83990046    -0.09130
C3072       C  0.03368161  0.90692221  0.82768504     0.29740
F3073       F  0.03248163  0.88046675  0.82771354    -0.19660
H3074       H  0.99720381  0.91066197  0.80708744     0.18110
H3075       H  0.07102690  0.95742373  0.84898699     0.18120
F3076       F  0.03642590  0.98789815  0.82677975    -0.19640
C3077       C  0.96458564  0.03994387  0.82820153    -0.21080
C3078       C  0.94745831  0.02232575  0.81593079    -0.09120
C3079       C  0.91995607  0.02702095  0.81773116     0.29740
C3080       C  0.91009086  0.04854865  0.83160279    -0.21080
C3081       C  0.92724697  0.06543239  0.84459935    -0.09130
C3082       C  0.95466432  0.06099977  0.84266167     0.29740
F3083       F  0.97191376  0.07710967  0.85460065    -0.19660
H3084       H  0.98583214  0.03725823  0.82686500     0.18110
H3085       H  0.88886713  0.05137203  0.83313906     0.18120
F3086       F  0.90245168  0.01010164  0.80742445    -0.19640
C3087       C  0.92965342  0.73340790  0.95683698    -0.21080
C3088       C  0.94411245  0.75234798  0.94325044    -0.09120
C3089       C  0.94264423  0.75321740  0.91594739     0.29740
C3090       C  0.92767115  0.73512059  0.90263435    -0.21080
C3091       C  0.91324118  0.71631267  0.91615013    -0.09130
C3092       C  0.91411458  0.71558218  0.94340076     0.29740
F3093       F  0.90061414  0.69725442  0.95692843    -0.19660
H3094       H  0.93040064  0.73242135  0.97782751     0.18110
H3095       H  0.92690160  0.73615774  0.88163088     0.18120
F3096       F  0.95471080  0.77224814  0.90205677    -0.19640
C3097       C  0.95644110  0.83517330  0.02861408    -0.21080
C3098       C  0.94304479  0.82431182  0.00741042    -0.09120
C3099       C  0.91525165  0.82679713  0.00627237     0.29740
C3100       C  0.90120777  0.83816585  0.02669788    -0.21080
C3101       C  0.91448176  0.84821762  0.04821273    -0.09130
C3102       C  0.94229354  0.84729038  0.04879895     0.29740
F3103       F  0.95567105  0.85705162  0.06933887    -0.19660
H3104       H  0.97778653  0.83361195  0.02991166     0.18110
H3105       H  0.87982276  0.83944090  0.02554443     0.18120
F3106       F  0.90157045  0.81852266  0.98525698    -0.19640
C3107       C  0.01678907  0.81394983  0.91377961    -0.21080
C3108       C  0.01645407  0.81581972  0.94108856    -0.09120
C3109       C  0.03743858  0.82835658  0.95356008     0.29740
C3110       C  0.05786919  0.83924960  0.93890639    -0.21080
C3111       C  0.05798297  0.83752583  0.91163716    -0.09130
C3112       C  0.03742506  0.82440823  0.89919558     0.29740
F3113       F  0.03653774  0.82278173  0.87291070    -0.19660
H3114       H  0.00065783  0.80487546  0.90353913     0.18110
H3115       H  0.07366835  0.84912085  0.94892663     0.18120
F3116       F  0.03843473  0.82979360  0.97984407    -0.19640
C3117       C  0.81033061  0.04557059  0.93461576    -0.21080
C3118       C  0.82302971  0.02257647  0.94317994    -0.09120
C3119       C  0.85091126  0.02111144  0.94237119     0.29740
C3120       C  0.86554916  0.04219908  0.93320390    -0.21080
C3121       C  0.85275267  0.06482940  0.92405572    -0.09130
C3122       C  0.82497969  0.06643112  0.92496123     0.29740
F3123       F  0.81199749  0.08827982  0.91678719    -0.19660
H3124       H  0.78897515  0.04741859  0.93540259     0.18110
H3125       H  0.88691612  0.04043248  0.93230148     0.18120
F3126       F  0.86404574  0.99890829  0.94926947    -0.19640
C3127       C  0.72361048  0.95313816  0.94491720    -0.21080
C3128       C  0.74620080  0.96220970  0.93183609    -0.09120
C3129       C  0.74612678  0.96244787  0.90440974     0.29740
C3130       C  0.72407034  0.95372370  0.89067397    -0.21080
C3131       C  0.70199016  0.94390089  0.90385483    -0.09130
C3132       C  0.70186186  0.94383689  0.93113981     0.29740
F3133       F  0.68060983  0.93491257  0.94450521    -0.19660
H3134       H  0.72278636  0.95313402  0.96592511     0.18110
H3135       H  0.72475051  0.95351086  0.86964929     0.18120
F3136       F  0.76782621  0.96976369  0.89075351    -0.19640
C3137       C  0.81027217  0.92205313  0.00592512    -0.21080
C3138       C  0.80965208  0.94949132  0.00642719    -0.09120
C3139       C  0.81939161  0.96231330  0.02856422     0.29740
C3140       C  0.83080818  0.94802710  0.04888753    -0.21080
C3141       C  0.83206804  0.92069463  0.04800327    -0.09130
C3142       C  0.82116818  0.90774625  0.02656471     0.29740
F3143       F  0.82227006  0.88132589  0.02490809    -0.19660
H3144       H  0.80316012  0.91163642  0.98911968     0.18110
H3145       H  0.83862079  0.95837081  0.06544359     0.18120
F3146       F  0.81775215  0.98867678  0.03069821    -0.19640
C3147       C  0.84138648  0.76279688  0.81136390    -0.21080
C3148       C  0.81372477  0.76617214  0.81076911    -0.09120
C3149       C  0.79800773  0.74730247  0.82339228     0.29740
C3150       C  0.80980690  0.72612070  0.83654689    -0.21080
C3151       C  0.83742428  0.72278730  0.83683944    -0.09130
C3152       C  0.85308878  0.74136244  0.82395707     0.29740
F3153       F  0.87989501  0.73931529  0.82420114    -0.19660
H3154       H  0.85417958  0.77705744  0.80243681     0.18110
H3155       H  0.79728542  0.71197889  0.84605571     0.18120
F3156       F  0.77120013  0.74879310  0.82243452    -0.19640
C3157       C  0.74505328  0.86667028  0.80661457    -0.21080
C3158       C  0.74551344  0.83919480  0.80743518    -0.09120
C3159       C  0.72396545  0.82623326  0.81882984     0.29740
C3160       C  0.70274521  0.84053875  0.82934341    -0.21080
C3161       C  0.70227788  0.86793229  0.82817606    -0.09130
C3162       C  0.72360977  0.88089810  0.81658142     0.29740
F3163       F  0.72425857  0.90736437  0.81575715    -0.19660
H3164       H  0.76153476  0.87727372  0.79847173     0.18110
H3165       H  0.68644349  0.83016311  0.83812667     0.18120
F3166       F  0.72298252  0.79978740  0.81918008    -0.19640
C3167       C  0.81795764  0.86193251  0.73901805    -0.21080
C3168       C  0.81543076  0.83458065  0.73946536    -0.09120
C3169       C  0.82522147  0.82009477  0.71826578     0.29740
C3170       C  0.83758122  0.83277158  0.69743120    -0.21080
C3171       C  0.83994349  0.86009006  0.69707958    -0.09130
C3172       C  0.82986972  0.87458933  0.71803971     0.29740
F3173       F  0.83268325  0.90088377  0.71887379    -0.19660
H3174       H  0.81105496  0.87359641  0.75524072     0.18110
H3175       H  0.84523203  0.82122372  0.68143949     0.18120
F3176       F  0.82235030  0.79382389  0.71736005    -0.19640
C3177       C  0.41562279  0.17654683  0.17706783    -0.21080
C3178       C  0.41775092  0.14946335  0.18010658    -0.09120
C3179       C  0.43858787  0.13893640  0.19513601     0.29740
C3180       C  0.45799168  0.15552324  0.20536823    -0.21080
C3181       C  0.45658310  0.18252997  0.20054825    -0.09130
C3182       C  0.43463257  0.19288764  0.18717633     0.29740
F3183       F  0.43173900  0.21901834  0.18345609    -0.19660
H3184       H  0.39937421  0.18514902  0.16619309     0.18110
H3185       H  0.47461672  0.14724099  0.21589271     0.18120
F3186       F  0.44107485  0.11275667  0.19852573    -0.19640
C3187       C  0.58109591  0.31593930  0.29642992    -0.21080
C3188       C  0.55751210  0.32773742  0.28785079    -0.09120
C3189       C  0.55420048  0.35489407  0.29013215     0.29740
C3190       C  0.57370859  0.36963992  0.30262767    -0.21080
C3191       C  0.59637563  0.35724962  0.31299814    -0.09130
C3192       C  0.60034518  0.33045687  0.30882728     0.29740
F3193       F  0.62260189  0.31812817  0.31741384    -0.19660
H3194       H  0.58409494  0.29504924  0.29452884     0.18110
H3195       H  0.57041868  0.39034931  0.30553713     0.18120
F3196       F  0.53147389  0.36672324  0.28212476    -0.19640
C3197       C  0.57840046  0.21406117  0.30625689    -0.21080
C3198       C  0.55485719  0.20335782  0.29692498    -0.09120
C3199       C  0.54995107  0.17678986  0.30119142     0.29740
C3200       C  0.56747726  0.16173351  0.31624436    -0.21080
C3201       C  0.59029275  0.17286027  0.32704678    -0.09130
C3202       C  0.59611384  0.19901450  0.32092165     0.29740
F3203       F  0.61809757  0.21064497  0.33027899    -0.19660
H3204       H  0.58249667  0.23454580  0.30315726     0.18110
H3205       H  0.56255453  0.14163620  0.32036103     0.18120
F3206       F  0.52714068  0.16599767  0.29278167    -0.19640
C3207       C  0.59422023  0.34341114  0.17408394    -0.21080
C3208       C  0.59027646  0.34543619  0.14721660    -0.09120
C3209       C  0.57374244  0.32755065  0.13477982     0.29740
C3210       C  0.56116149  0.30819722  0.14916981    -0.21080
C3211       C  0.56450707  0.30651744  0.17623978    -0.09130
C3212       C  0.58134472  0.32433834  0.18856712     0.29740
F3213       F  0.58511248  0.32373437  0.21464717    -0.19660
H3214       H  0.60690673  0.35700857  0.18402421     0.18110
H3215       H  0.54817049  0.29497419  0.13912042     0.18120
F3216       F  0.56994944  0.32853402  0.10870562    -0.19640
C3217       C  0.43485290  0.29912249  0.18130539    -0.21080
C3218       C  0.45888971  0.30897873  0.19040790    -0.09120
C3219       C  0.46545248  0.33489234  0.18453288     0.29740
C3220       C  0.44904777  0.34998111  0.16831204    -0.21080
C3221       C  0.42569781  0.33959874  0.15788391    -0.09130
C3222       C  0.41826687  0.31423683  0.16545260     0.29740
F3223       F  0.39579641  0.30330710  0.15635928    -0.19660
H3224       H  0.42952769  0.27911874  0.18545767     0.18110
H3225       H  0.45518922  0.36948070  0.16310870     0.18120
F3226       F  0.48882948  0.34482540  0.19250818    -0.19640
C3227       C  0.41453703  0.17156061  0.31165583    -0.21080
C3228       C  0.41834557  0.16815289  0.33845521    -0.09120
C3229       C  0.43561828  0.18492618  0.35158014     0.29740
C3230       C  0.44921932  0.20418086  0.33789086    -0.21080
C3231       C  0.44613875  0.20690567  0.31088994    -0.09130
C3232       C  0.42831228  0.19056902  0.29794754     0.29740
F3233       F  0.42449158  0.19253196  0.27193052    -0.19660
H3234       H  0.40132330  0.15901436  0.30103838     0.18110
H3235       H  0.46297720  0.21629966  0.34833682     0.18120
F3236       F  0.43965376  0.18263344  0.37753638    -0.19640
C3237       C  0.54734004  0.44667999  0.40444504    -0.21080
C3238       C  0.54640947  0.44235547  0.43144887    -0.09120
C3239       C  0.56639647  0.42707401  0.44307792     0.29740
C3240       C  0.58727213  0.41717032  0.42803574    -0.21080
C3241       C  0.58876004  0.42266464  0.40131958    -0.09130
C3242       C  0.56833921  0.43710861  0.38952457     0.29740
F3243       F  0.56854187  0.44182908  0.36357334    -0.19660
H3244       H  0.53212601  0.45825119  0.39490736     0.18110
H3245       H  0.60279505  0.40590744  0.43745352     0.18120
F3246       F  0.56671503  0.42301856  0.46908619    -0.19640
C3247       C  0.45435749  0.58399319  0.56022823    -0.21080
C3248       C  0.46123843  0.55821535  0.56666068    -0.09120
C3249       C  0.44790608  0.54599185  0.58750114     0.29740
C3250       C  0.42830363  0.55933927  0.60142351    -0.21080
C3251       C  0.42132955  0.58506992  0.59498588    -0.09130
C3252       C  0.43473598  0.59739636  0.57426035     0.29740
F3253       F  0.42915769  0.62249830  0.56758777    -0.19660
H3254       H  0.46424659  0.59385056  0.54437651     0.18110
H3255       H  0.41831222  0.54930377  0.61710110     0.18120
F3256       F  0.45316245  0.52079929  0.59413363    -0.19640
C3257       C  0.41201439  0.54774606  0.43427863    -0.21080
C3258       C  0.42642234  0.55436966  0.45659714    -0.09120
C3259       C  0.42321340  0.57957463  0.46717804     0.29740
C3260       C  0.40802248  0.59836075  0.45401581    -0.21080
C3261       C  0.39622117  0.59218674  0.43028412    -0.09130
C3262       C  0.39732745  0.56658278  0.42102431     0.29740
F3263       F  0.38527614  0.56015952  0.39843229    -0.19660
H3264       H  0.41364655  0.52840939  0.42594211     0.18110
H3265       H  0.40702076  0.61813909  0.46135979     0.18120
F3266       F  0.43656043  0.58680465  0.48877815    -0.19640
C3267       C  0.44661083  0.44121957  0.55006780    -0.21080
C3268       C  0.47403099  0.43731531  0.55225743    -0.09120
C3269       C  0.48383872  0.41882839  0.57001861     0.29740
C3270       C  0.46648765  0.40524704  0.58614026    -0.21080
C3271       C  0.43909065  0.41037822  0.58532488    -0.09130
C3272       C  0.42919095  0.42795191  0.56655616     0.29740
F3273       F  0.40282385  0.43286419  0.56463257    -0.19660
H3274       H  0.43881301  0.45580239  0.53678330     0.18110
H3275       H  0.47467975  0.39177085  0.60031264     0.18120
F3276       F  0.51032961  0.41507228  0.57280147    -0.19640
C3277       C  0.52933253  0.58157330  0.42815143    -0.21080
C3278       C  0.53798351  0.56329449  0.44662481    -0.09120
C3279       C  0.56527294  0.55850168  0.44943376     0.29740
C3280       C  0.58350367  0.57111423  0.43318884    -0.21080
C3281       C  0.57479231  0.58890345  0.41410262    -0.09130
C3282       C  0.54744648  0.59449134  0.41223758     0.29740
F3283       F  0.53794632  0.61111559  0.39383710    -0.19660
H3284       H  0.50833941  0.58489000  0.42517113     0.18110
H3285       H  0.60437864  0.56652032  0.43512589     0.18120
F3286       F  0.57412181  0.54023873  0.46656543    -0.19640
C3287       C  0.59931708  0.45331211  0.56202602    -0.21080
C3288       C  0.58073754  0.44593968  0.54324047    -0.09120
C3289       C  0.57735716  0.41924458  0.53781582     0.29740
C3290       C  0.59100746  0.40040557  0.55221803    -0.21080
C3291       C  0.60806423  0.40793231  0.57204631    -0.09130
C3292       C  0.61294195  0.43438312  0.57638880     0.29740
F3293       F  0.62970219  0.44182871  0.59546598    -0.19660
H3294       H  0.60208066  0.47370158  0.56665878     0.18110
H3295       H  0.58723341  0.37992478  0.54882918     0.18120
F3296       F  0.55882906  0.41122033  0.52067756    -0.19640
loop_ 
_geom_bond_atom_site_label_1 
_geom_bond_atom_site_label_2 
_geom_bond_distance 
_geom_bond_site_symmetry_2 
_ccdc_geom_bond_type 
O1           Ni7   1.917       .  S
O1           C22   1.270       .  A
O2          Ni25   1.910       .  S
O2           C11   1.273       .  A
O3           Ni7   1.887       .  S
O3          Ni25   1.894       .  S
O3          Ni19   1.908       .  S
O3           H26   0.966       .  S
C4           O21   1.276       .  A
C4           O13   1.274       .  A
C4         C3258   1.476       .  S
O5          Ni24   1.911       .  S
O5           C11   1.270       .  A
O6          Ni24   1.901       .  S
O6            C8   1.268       .  A
Ni7          O10   1.910       .  S
Ni7          O12   1.902       .  S
C8           O18   1.278       .  A
C8         C3278   1.473       .  S
O9          Ni25   1.916       .  S
O9           C15   1.276       .  A
O10          C15   1.275       .  A
C11        C3238   1.478       .  S
O12          C14   1.268       .  A
O13         Ni24   1.905       .  S
C14          O20   1.275       .  A
C14        C3268   1.468       .  S
C15        C3288   1.470       .  S
H16          O17   0.966       .  S
O17         Ni25   1.908       .  S
O17         Ni19   1.897       .  S
O17         Ni24   1.886       .  S
O18         Ni19   1.947       .  S
Ni19         O23   1.912       .  S
Ni19         O21   1.920       .  S
O20         Ni25   1.938       .  S
C22          O23   1.274       .  A
C22        C3248   1.483       .  S
O27         Ni33   1.917       .  S
O27          C48   1.269       .  A
O28         Ni51   1.913       .  S
O28          C37   1.266       .  A
O29         Ni33   1.911       .  S
O29         Ni51   1.913       .  S
O29         Ni45   1.914       .  S
O29          H52   0.966       .  S
C30          O47   1.269       .  A
C30          O39   1.275       .  A
C30        C3231   1.479       .  S
O31         Ni50   1.918       .  S
O31          C37   1.268       .  A
O32         Ni50   1.895       .  S
O32          C34   1.266       .  A
Ni33         O36   1.924       .  S
Ni33         O38   1.894       .  S
C34          O44   1.275       .  A
C34        C3198   1.475       .  S
O35         Ni51   1.898       .  S
O35          C41   1.269       .  A
O36          C41   1.274       .  A
C37        C3188   1.471       .  S
O38          C40   1.267       .  A
O39         Ni50   1.925       .  S
C40          O46   1.278       .  A
C40        C3218   1.477       .  S
C41        C3211   1.479       .  S
H42          O43   0.966       .  S
O43         Ni51   1.914       .  S
O43         Ni45   1.912       .  S
O43         Ni50   1.915       .  S
O44         Ni45   1.942       .  S
Ni45         O49   1.910       .  S
Ni45         O47   1.898       .  S
O46         Ni51   1.950       .  S
C48          O49   1.265       .  A
C48        C3181   1.475       .  S
C53        C3148   1.502       .  S
C53          C54   1.415       .  A
C53          C58   1.411       .  A
C54          C55   1.409       .  A
C54          H59   1.082       .  S
C55        C3168   1.492       .  S
C55          C56   1.400       .  A
C56          C57   1.401       .  A
C56          H60   1.084       .  S
C57        C3158   1.490       .  S
C57          C58   1.408       .  A
C58          H61   1.082       .  S
C62        C3128   1.494       .  S
C62          C63   1.410       .  A
C62          C67   1.407       .  A
C63          C64   1.408       .  A
C63          H68   1.083       .  S
C64        C3138   1.490   1_556  S
C64          C65   1.404       .  A
C65          C66   1.402   1_565  A
C65          H69   1.082       .  S
C66        C3118   1.487       .  S
C66          C67   1.405   1_545  A
C67          H70   1.082   1_565  S
C71        C3108   1.486   1_655  S
C71          C72   1.411       .  A
C71          C76   1.400       .  A
C72          C73   1.409       .  A
C72          H77   1.083       .  S
C73        C3098   1.486   1_556  S
C73          C74   1.404       .  A
C74          C75   1.397       .  A
C74          H78   1.083       .  S
C75        C3088   1.478       .  S
C75          C76   1.397       .  A
C76          H79   1.084       .  S
C80        C3058   1.500       .  S
C80          C81   1.413       .  A
C80          C85   1.407       .  A
C81          C82   1.414       .  A
C81          H86   1.082       .  S
C82        C3078   1.498   1_565  S
C82          C83   1.407       .  A
C83          C84   1.402       .  A
C83          H87   1.083       .  S
C84        C3068   1.491   1_655  S
C84          C85   1.405       .  A
C85          H88   1.083       .  S
O89         Ni97   1.931       .  S
O89          C99   1.284       .  A
O90         Ni97   1.920       .  S
O90         C100   1.284       .  A
O91         Ni97   1.900       .  S
O91         C101   1.276       .  A
O92         Ni97   1.899       .  S
O92         C102   1.277       .  A
O93         Ni98   1.929       .  S
O93         C102   1.285       .  A
O94         Ni98   1.925       .  S
O94         C101   1.285       .  A
O95         Ni98   1.910       .  S
O95         C100   1.277       .  A
O96         Ni98   1.904       .  S
O96          C99   1.278       .  A
Ni97        Ni98   2.390       .  S
C99        C3071   1.477       .  S
C100       C3048   1.468       .  S
C101       C3038   1.472       .  S
C102       C3111   1.475       .  S
O103       Ni111   1.919       .  S
O103        C113   1.280       .  A
O104       Ni111   1.914       .  S
O104        C114   1.280       .  A
O105       Ni111   1.909       .  S
O105        C115   1.281       .  A
O106       Ni111   1.920       .  S
O106        C116   1.282       .  A
O107       Ni112   1.918       .  S
O107        C116   1.281       .  A
O108       Ni112   1.926       .  S
O108        C115   1.282       .  A
O109       Ni112   1.920       .  S
O109        C114   1.282       .  A
O110       Ni112   1.913       .  S
O110        C113   1.281       .  A
Ni111      Ni112   2.389       .  S
C113       C3101   1.472       .  S
C114       C3018   1.472       .  S
C115       C3028   1.482       .  S
C116       C3141   1.478       .  S
O117       Ni125   1.909       .  S
O117        C127   1.278       .  A
O118       Ni125   1.909       .  S
O118        C128   1.279       .  A
O119       Ni125   1.932       .  S
O119        C129   1.285       .  A
O120       Ni125   1.931       .  S
O120        C130   1.284       .  A
O121       Ni126   1.922       .  S
O121        C130   1.280       .  A
O122       Ni126   1.920       .  S
O122        C129   1.281       .  A
O123       Ni126   1.936       .  S
O123        C128   1.285       .  A
O124       Ni126   1.931       .  S
O124        C127   1.285       .  A
Ni125      Ni126   2.386       .  S
C127       C3171   1.479       .  S
C128       C2998   1.480       .  S
C129       C3061   1.487       .  S
C130       C3008   1.479       .  S
O131       Ni139   1.915       .  S
O131        C141   1.280       .  A
O132       Ni139   1.914       .  S
O132        C142   1.280       .  A
O133       Ni139   1.930       .  S
O133        C143   1.283       .  A
O134       Ni139   1.940       .  S
O134        C144   1.286       .  A
O135       Ni140   1.913       .  S
O135        C144   1.280       .  A
O136       Ni140   1.912       .  S
O136        C143   1.282       .  A
O137       Ni140   1.906       .  S
O137        C142   1.277       .  A
O138       Ni140   1.899       .  S
O138        C141   1.278       .  A
Ni139      Ni140   2.389       .  S
C141       C3091   1.464       .  S
C142       C2978   1.457       .  S
C143       C2988   1.491       .  S
C144       C3151   1.489       .  S
O145       Ni153   1.913       .  S
O145        C155   1.280       .  A
O146       Ni153   1.899       .  S
O146        C156   1.279       .  A
O147       Ni153   1.908       .  S
O147        C157   1.279       .  A
O148       Ni153   1.915       .  S
O148        C158   1.281       .  A
O149       Ni154   1.926       .  S
O149        C158   1.283       .  A
O150       Ni154   1.923       .  S
O150        C157   1.281       .  A
O151       Ni154   1.932       .  S
O151        C156   1.282       .  A
O152       Ni154   1.922       .  S
O152        C155   1.283       .  A
Ni153      Ni154   2.391       .  S
C155       C3161   1.477       .  S
C156       C2958   1.466       .  S
C157       C2968   1.466       .  S
C158       C3131   1.478       .  S
O159       Ni167   1.919       .  S
O159        C169   1.282       .  A
O160       Ni167   1.919       .  S
O160        C170   1.282       .  A
O161       Ni167   1.927       .  S
O161        C171   1.283       .  A
O162       Ni167   1.923       .  S
O162        C172   1.282       .  A
O163       Ni168   1.922       .  S
O163        C172   1.282       .  A
O164       Ni168   1.913       .  S
O164        C171   1.281       .  A
O165       Ni168   1.913       .  S
O165        C170   1.280       .  A
O166       Ni168   1.912       .  S
O166        C169   1.280       .  A
Ni167      Ni168   2.388       .  S
C169       C3121   1.474       .  S
C170       C2938   1.475       .  S
C171       C2948   1.481       .  S
C172       C3081   1.482       .  S
O173       Ni179   1.912       .  S
O173        C194   1.269       .  A
O174       Ni197   1.916       .  S
O174        C183   1.273       .  A
O175       Ni179   1.890       .  S
O175       Ni197   1.909       .  S
O175       Ni191   1.917       .  S
O175        H198   0.966       .  S
C176        O193   1.278       .  A
C176        O185   1.275       .  A
C176       C2918   1.488       .  S
O177       Ni196   1.917       .  S
O177        C183   1.270       .  A
O178       Ni196   1.909       .  S
O178        C180   1.268       .  A
Ni179       O182   1.911       .  S
Ni179       O184   1.893       .  S
C180        O190   1.275       .  A
C180       C2901   1.470       .  S
O181       Ni197   1.919       .  S
O181        C187   1.276       .  A
O182        C187   1.273       .  A
C183       C2888   1.484       .  S
O184        C186   1.268       .  A
O185       Ni196   1.913       .  S
C186        O192   1.280       .  A
C186       C2878   1.478       .  S
C187       C2931   1.481       .  S
H188        O189   0.966       .  S
O189       Ni197   1.915       .  S
O189       Ni191   1.896       .  S
O189       Ni196   1.892       .  S
O190       Ni191   1.937       .  S
Ni191       O195   1.908       .  S
Ni191       O193   1.930       .  S
O192       Ni197   1.957       .  S
C194        O195   1.271       .  A
C194       C2908   1.476       .  S
O199       Ni205   1.895       .  S
O199        C220   1.264       .  A
O200       Ni223   1.918       .  S
O200        C209   1.268       .  A
O201       Ni205   1.911       .  S
O201       Ni223   1.917       .  S
O201       Ni217   1.932       .  S
O201        H224   0.969       .  S
C202        O219   1.271       .  A
C202        O211   1.266       .  A
C202       C2838   1.479       .  S
O203       Ni222   1.908       .  S
O203        C209   1.263       .  A
O204       Ni222   1.883       .  S
O204        C206   1.267       .  A
Ni205       O208   1.923       .  S
Ni205       O210   1.883       .  S
C206        O216   1.282       .  A
C206       C2828   1.476       .  S
O207       Ni223   1.906       .  S
O207        C213   1.265       .  A
O208        C213   1.266       .  A
C209       C2861   1.472       .  S
O210        C212   1.265       .  A
O211       Ni222   1.907       .  S
C212        O218   1.283       .  A
C212       C2851   1.469       .  S
C213       C2818   1.470       .  S
H214        O215   0.964       .  S
O215       Ni223   1.918       .  S
O215       Ni217   1.929       .  S
O215       Ni222   1.917       .  S
O216       Ni217   1.959       .  S
Ni217       O221   1.939       .  S
Ni217       O219   1.913       .  S
O218       Ni223   1.971       .  S
C220        O221   1.276       .  A
C220       C2871   1.490       .  S
O225       Ni231   1.904       .  S
O225        C246   1.267       .  A
O226       Ni249   1.905       .  S
O226        C235   1.268       .  A
O227       Ni231   1.917       .  S
O227       Ni249   1.916       .  S
O227       Ni243   1.926       .  S
O227        H250   0.965       .  S
C228        O245   1.265       .  A
C228        O237   1.272       .  A
C228       C2788   1.472       .  S
O229       Ni248   1.922       .  S
O229        C235   1.271       .  A
O230       Ni248   1.895       .  S
O230        C232   1.269       .  A
Ni231       O234   1.922       .  S
Ni231       O236   1.892       .  S
C232        O242   1.283       .  A
C232       C2798   1.476       .  S
O233       Ni249   1.906       .  S
O233        C239   1.268       .  A
O234        C239   1.267       .  A
C235       C2971   1.477       .  S
O236        C238   1.268       .  A
O237       Ni248   1.938       .  S
C238        O244   1.279       .  A
C238       C2778   1.468       .  S
C239       C2808   1.475       .  S
H240        O241   0.967       .  S
O241       Ni249   1.921       .  S
O241       Ni243   1.911       .  S
O241       Ni248   1.917       .  S
O242       Ni243   1.966       .  S
Ni243       O247   1.916       .  S
Ni243       O245   1.907       .  S
O244       Ni249   1.953       .  S
C246        O247   1.269       .  A
C246       C2768   1.485       .  S
O251       Ni257   1.910       .  S
O251        C272   1.268       .  A
O252       Ni275   1.909       .  S
O252        C261   1.267       .  A
O253       Ni257   1.904       .  S
O253       Ni275   1.909   1_556  S
O253       Ni269   1.918       .  S
O253        H276   0.966       .  S
C254        O271   1.274       .  A
C254        O263   1.276       .  A
C254       C2728   1.474       .  S
O255       Ni274   1.915       .  S
O255        C261   1.270       .  A
O256       Ni274   1.900   1_556  S
O256        C258   1.269       .  A
Ni257       O260   1.919   1_556  S
Ni257       O262   1.896   1_556  S
C258        O268   1.279       .  A
C258       C2738   1.493       .  S
O259       Ni275   1.906       .  S
O259        C265   1.272       .  A
O260        C265   1.274       .  A
C261       C2748   1.468       .  S
O262        C264   1.267       .  A
O263       Ni274   1.915   1_556  S
C264        O270   1.276       .  A
C264       C2721   1.481       .  S
C265       C2758   1.476       .  S
H266        O267   0.966       .  S
O267       Ni275   1.910       .  S
O267       Ni269   1.896   1_554  S
O267       Ni274   1.895       .  S
O268       Ni269   1.948       .  S
Ni269       O273   1.906       .  S
Ni269       O271   1.914       .  S
O270       Ni275   1.945       .  S
C272        O273   1.267       .  A
C272       C3051   1.465       .  S
O277       Ni283   1.919   1_655  S
O277        C298   1.271       .  A
O278       Ni301   1.908       .  S
O278        C287   1.270       .  A
O279       Ni283   1.895       .  S
O279       Ni301   1.894   1_554  S
O279       Ni295   1.912   1_454  S
O279        H302   0.966       .  S
C280        O297   1.271       .  A
C280        O289   1.271       .  A
C280       C2991   1.484       .  S
O281       Ni300   1.902   1_455  S
O281        C287   1.267       .  A
O282       Ni300   1.886   1_455  S
O282        C284   1.266       .  A
Ni283       O286   1.913       .  S
Ni283       O288   1.905       .  S
C284        O294   1.279       .  A
C284       C2678   1.469       .  S
O285       Ni301   1.945   1_554  S
O285        C291   1.282       .  A
O286        C291   1.276       .  A
C287       C2698   1.480       .  S
O288        C290   1.268   1_455  A
O289       Ni300   1.920       .  S
C290        O296   1.271       .  A
C290       C2711   1.463       .  S
C291       C2668   1.495       .  S
H292        O293   0.966       .  S
O293       Ni301   1.937   1_655  S
O293       Ni295   1.912       .  S
O293       Ni300   1.897       .  S
O294       Ni295   1.956   1_455  S
Ni295       O299   1.904   1_556  S
Ni295       O297   1.924       .  S
O296       Ni301   1.927   1_654  S
C298        O299   1.267       .  A
C298       C2691   1.471       .  S
O303       Ni309   1.910       .  S
O303        C324   1.268       .  A
O304       Ni327   1.921       .  S
O304        C313   1.275       .  A
O305       Ni309   1.884       .  S
O305       Ni327   1.905   1_565  S
O305       Ni321   1.917   1_565  S
O305        H328   0.966       .  S
C306        O323   1.279       .  A
C306        O315   1.273       .  A
C306       C2618   1.479       .  S
O307       Ni326   1.907       .  S
O307        C313   1.267       .  A
O308       Ni326   1.901       .  S
O308        C310   1.268       .  A
Ni309       O312   1.907       .  S
Ni309       O314   1.890       .  S
C310        O320   1.274       .  A
C310       C2661   1.464       .  S
O311       Ni327   1.930   1_565  S
O311        C317   1.279       .  A
O312        C317   1.275       .  A
C313       C2638   1.476       .  S
O314        C316   1.266       .  A
O315       Ni326   1.906       .  S
C316        O322   1.276       .  A
C316       C2628   1.465       .  S
C317       C2651   1.478       .  S
H318        O319   0.966       .  S
O319       Ni327   1.916       .  S
O319       Ni321   1.897       .  S
O319       Ni326   1.882       .  S
O320       Ni321   1.936       .  S
Ni321       O325   1.913   1_545  S
Ni321       O323   1.932       .  S
O322       Ni327   1.944   1_565  S
C324        O325   1.271       .  A
C324       C3041   1.470       .  S
O329       Ni335   1.924       .  S
O329        C350   1.274       .  A
O330       Ni353   1.909       .  S
O330        C339   1.272       .  A
O331       Ni335   1.890       .  S
O331       Ni353   1.891       .  S
O331       Ni347   1.922       .  S
O331        H354   0.966       .  S
C332        O349   1.280       .  A
C332        O341   1.274       .  A
C332       C3011   1.493       .  S
O333       Ni352   1.911       .  S
O333        C339   1.271       .  A
O334       Ni352   1.895       .  S
O334        C336   1.267       .  A
Ni335       O338   1.923       .  S
Ni335       O340   1.910       .  S
C336        O346   1.274       .  A
C336       C2608   1.467       .  S
O337       Ni353   1.943       .  S
O337        C343   1.282       .  A
O338        C343   1.276       .  A
C339       C2568   1.480       .  S
O340        C342   1.271       .  A
O341       Ni352   1.919       .  S
C342        O348   1.275       .  A
C342       C2578   1.474       .  S
C343       C2598   1.486       .  S
H344        O345   0.966       .  S
O345       Ni353   1.928       .  S
O345       Ni347   1.904       .  S
O345       Ni352   1.892       .  S
O346       Ni347   1.938       .  S
Ni347       O351   1.901       .  S
Ni347       O349   1.937       .  S
O348       Ni353   1.933       .  S
C350        O351   1.270       .  A
C350       C2588   1.477       .  S
O355       Ni361   1.910   1_455  S
O355        C376   1.269       .  A
O356       Ni379   1.918       .  S
O356        C365   1.271       .  A
O357       Ni361   1.896       .  S
O357       Ni379   1.910       .  S
O357       Ni373   1.917   1_655  S
O357        H380   0.966       .  S
C358        O375   1.273       .  A
C358        O367   1.272       .  A
C358       C2561   1.488       .  S
O359       Ni378   1.909   1_655  S
O359        C365   1.267       .  A
O360       Ni378   1.891   1_655  S
O360        C362   1.267       .  A
Ni361       O364   1.911       .  S
Ni361       O366   1.896   1_655  S
C362        O372   1.278       .  A
C362       C2531   1.467       .  S
O363       Ni379   1.930       .  S
O363        C369   1.278       .  A
O364        C369   1.274       .  A
C365       C2541   1.482       .  S
O366        C368   1.266       .  A
O367       Ni378   1.912       .  S
C368        O374   1.276       .  A
C368       C2518   1.473       .  S
C369       C3031   1.489       .  S
H370        O371   0.966       .  S
O371       Ni379   1.928   1_455  S
O371       Ni373   1.916       .  S
O371       Ni378   1.902       .  S
O372       Ni373   1.944   1_655  S
Ni373       O377   1.920       .  S
Ni373       O375   1.920       .  S
O374       Ni379   1.945   1_455  S
C376        O377   1.271       .  A
C376       C2548   1.483       .  S
O381       Ni387   1.900   1_565  S
O381        C402   1.264       .  A
O382       Ni405   1.916       .  S
O382        C391   1.271       .  A
O383       Ni387   1.889       .  S
O383       Ni405   1.934   1_554  S
O383       Ni399   1.917   1_545  S
O383        H406   0.965       .  S
C384        O401   1.274       .  A
C384        O393   1.274       .  A
C384       C2498   1.479       .  S
O385       Ni404   1.918   1_546  S
O385        C391   1.268       .  A
O386       Ni404   1.904   1_545  S
O386        C388   1.267       .  A
Ni387       O390   1.926   1_554  S
Ni387       O392   1.883   1_544  S
C388        O398   1.272       .  A
C388       C2468   1.465       .  S
O389       Ni405   1.907       .  S
O389        C395   1.273       .  A
O390        C395   1.275       .  A
C391       C2508   1.484       .  S
O392        C394   1.252       .  A
O393       Ni404   1.912       .  S
C394        O400   1.274       .  A
C394       C2961   1.482       .  S
C395       C2478   1.478       .  S
H396        O397   0.967       .  S
O397       Ni405   1.906   1_565  S
O397       Ni399   1.907   1_556  S
O397       Ni404   1.902   1_556  S
O398       Ni399   1.931   1_545  S
Ni399       O403   1.915       .  S
Ni399       O401   1.910       .  S
O400       Ni405   1.977   1_565  S
C402        O403   1.270       .  A
C402       C2488   1.474       .  S
C407       C2451   1.481       .  S
C407        C408   1.402       .  A
C407        C412   1.402       .  A
C408        C409   1.404       .  A
C408        H413   1.084       .  S
C409       C2461   1.478       .  S
C409        C410   1.400       .  A
C410        C411   1.403       .  A
C410        H414   1.083       .  S
C411       C2438   1.481       .  S
C411        C412   1.400       .  A
C412        H415   1.083       .  S
O416       Ni424   1.929       .  S
O416        C426   1.284       .  A
O417       Ni424   1.927       .  S
O417        C427   1.284       .  A
O418       Ni424   1.908       .  S
O418        C428   1.277       .  A
O419       Ni424   1.909       .  S
O419        C429   1.280       .  A
O420       Ni425   1.913       .  S
O420        C429   1.280       .  A
O421       Ni425   1.911       .  S
O421        C428   1.281       .  A
O422       Ni425   1.915       .  S
O422        C427   1.281       .  A
O423       Ni425   1.916       .  S
O423        C426   1.281       .  A
Ni424      Ni425   2.391       .  S
C426       C2428   1.479       .  S
C427       C2898   1.488       .  S
C428       C3261   1.457       .  S
C429       C2448   1.465       .  S
C430       C2398   1.492       .  S
C430        C431   1.403       .  A
C430        C435   1.411       .  A
C431        C432   1.400       .  A
C431        H436   1.083       .  S
C432       C2408   1.485       .  S
C432        C433   1.401       .  A
C433        C434   1.409       .  A
C433        H437   1.083       .  S
C434       C2418   1.491   1_565  S
C434        C435   1.411       .  A
C435        H438   1.083       .  S
O439       Ni447   1.924       .  S
O439        C449   1.283       .  A
O440       Ni447   1.928       .  S
O440        C450   1.284       .  A
O441       Ni447   1.913       .  S
O441        C451   1.280       .  A
O442       Ni447   1.919       .  S
O442        C452   1.280       .  A
O443       Ni448   1.912       .  S
O443        C452   1.280       .  A
O444       Ni448   1.925       .  S
O444        C451   1.283       .  A
O445       Ni448   1.905       .  S
O445        C450   1.278       .  A
O446       Ni448   1.914       .  S
O446        C449   1.280       .  A
Ni447      Ni448   2.392       .  S
C449       C2401   1.475       .  S
C450       C2581   1.470       .  S
C451       C2388   1.474       .  S
C452       C2378   1.463       .  S
O453       Ni461   1.898       .  S
O453        C463   1.278       .  A
O454       Ni461   1.901       .  S
O454        C464   1.278       .  A
O455       Ni461   1.911       .  S
O455        C465   1.281       .  A
O456       Ni461   1.915       .  S
O456        C466   1.281       .  A
O457       Ni462   1.907       .  S
O457        C466   1.280       .  A
O458       Ni462   1.922       .  S
O458        C465   1.281       .  A
O459       Ni462   1.916       .  S
O459        C464   1.282       .  A
O460       Ni462   1.923       .  S
O460        C463   1.282       .  A
Ni461      Ni462   2.390       .  S
C463       C2458   1.467       .  S
C464       C2501   1.467       .  S
C465       C2411   1.473       .  S
C466       C2761   1.477       .  S
C467       C2368   1.493       .  S
C467        C468   1.409       .  A
C467        C472   1.408       .  A
C468        C469   1.407       .  A
C468        H473   1.082       .  S
C469       C2358   1.489   1_565  S
C469        C470   1.402       .  A
C470        C471   1.401       .  A
C470        H474   1.083       .  S
C471       C2348   1.487       .  S
C471        C472   1.405       .  A
C472        H475   1.082       .  S
C476       C2391   1.487       .  S
C476        C477   1.406       .  A
C476        C481   1.403       .  A
C477        C478   1.409       .  A
C477        H482   1.083       .  S
C478       C2431   1.498       .  S
C478        C479   1.408       .  A
C479        C480   1.408       .  A
C479        H483   1.082       .  S
C480       C2338   1.492       .  S
C480        C481   1.405       .  A
C481        H484   1.083       .  S
O485       Ni493   1.918       .  S
O485        C495   1.282       .  A
O486       Ni493   1.924       .  S
O486        C496   1.283       .  A
O487       Ni493   1.924       .  S
O487        C497   1.283       .  A
O488       Ni493   1.926       .  S
O488        C498   1.282       .  A
O489       Ni494   1.903       .  S
O489        C498   1.281       .  A
O490       Ni494   1.914       .  S
O490        C497   1.281       .  A
O491       Ni494   1.906       .  S
O491        C496   1.280       .  A
O492       Ni494   1.910       .  S
O492        C495   1.279       .  A
Ni493      Ni494   2.387       .  S
C495       C2351   1.471       .  S
C496       C2781   1.483       .  S
C497       C2341   1.480       .  S
C498       C2648   1.483       .  S
O499       Ni507   1.916       .  S
O499        C509   1.281       .  A
O500       Ni507   1.915       .  S
O500        C510   1.279       .  A
O501       Ni507   1.909       .  S
O501        C511   1.281       .  A
O502       Ni507   1.920       .  S
O502        C512   1.281       .  A
O503       Ni508   1.910       .  S
O503        C512   1.280       .  A
O504       Ni508   1.917       .  S
O504        C511   1.281       .  A
O505       Ni508   1.929       .  S
O505        C510   1.284       .  A
O506       Ni508   1.929       .  S
O506        C509   1.283       .  A
Ni507      Ni508   2.389       .  S
C509       C2421   1.480       .  S
C510       C2858   1.474       .  S
C511       C3228   1.478       .  S
C512       C2361   1.470       .  S
O513       Ni521   1.919       .  S
O513        C523   1.282       .  A
O514       Ni521   1.925       .  S
O514        C524   1.282       .  A
O515       Ni521   1.923       .  S
O515        C525   1.281       .  A
O516       Ni521   1.927       .  S
O516        C526   1.284       .  A
O517       Ni522   1.911       .  S
O517        C526   1.280       .  A
O518       Ni522   1.910       .  S
O518        C525   1.282       .  A
O519       Ni522   1.895       .  S
O519        C524   1.278       .  A
O520       Ni522   1.899       .  S
O520        C523   1.277       .  A
Ni521      Ni522   2.388       .  S
C523       C2441   1.465       .  S
C524       C2328   1.475       .  S
C525       C2551   1.482       .  S
C526       C2371   1.478       .  S
O527       Ni533   1.932       .  S
O527        C548   1.273       .  A
O528       Ni551   1.893       .  S
O528        C537   1.263       .  A
O529       Ni533   1.907       .  S
O529       Ni551   1.895   1_545  S
O529       Ni545   1.912       .  S
O529        H552   0.966       .  S
C530        O547   1.273       .  A
C530        O539   1.277       .  A
C530       C2321   1.478       .  S
O531       Ni550   1.933       .  S
O531        C537   1.272       .  A
O532       Ni550   1.903   1_545  S
O532        C534   1.269       .  A
Ni533       O536   1.929   1_545  S
Ni533       O538   1.906   1_545  S
C534        O544   1.278       .  A
C534       C2301   1.477       .  S
O535       Ni551   1.894       .  S
O535        C541   1.268       .  A
O536        C541   1.277       .  A
C537       C2381   1.463       .  S
O538        C540   1.269       .  A
O539       Ni550   1.928   1_545  S
C540        O546   1.274       .  A
C540       C3021   1.470       .  S
C541       C2308   1.473       .  S
H542        O543   0.966       .  S
O543       Ni551   1.899       .  S
O543       Ni545   1.905   1_565  S
O543       Ni550   1.898       .  S
O544       Ni545   1.955       .  S
Ni545       O549   1.906       .  S
Ni545       O547   1.904       .  S
O546       Ni551   1.932       .  S
C548        O549   1.270       .  A
C548       C2288   1.470       .  S
O553       Ni559   1.919   1_556  S
O553        C574   1.269       .  A
O554       Ni577   1.912       .  S
O554        C563   1.267       .  A
O555       Ni559   1.900       .  S
O555       Ni577   1.900       .  S
O555       Ni571   1.905   1_554  S
O555        H578   0.966       .  S
C556        O573   1.270       .  A
C556        O565   1.276       .  A
C556       C2268   1.475       .  S
O557       Ni576   1.920   1_554  S
O557        C563   1.271       .  A
O558       Ni576   1.893   1_554  S
O558        C560   1.266       .  A
Ni559       O562   1.910       .  S
Ni559       O564   1.911   1_554  S
C560        O570   1.279       .  A
C560       C2258   1.475       .  S
O561       Ni577   1.910       .  S
O561        C567   1.274       .  A
O562        C567   1.275       .  A
C563       C2281   1.478       .  S
O564        C566   1.268       .  A
O565       Ni576   1.922       .  S
C566        O572   1.271       .  A
C566       C2951   1.470       .  S
C567       C2241   1.466       .  S
H568        O569   0.966       .  S
O569       Ni577   1.908   1_556  S
O569       Ni571   1.913       .  S
O569       Ni576   1.892       .  S
O570       Ni571   1.961   1_554  S
Ni571       O575   1.918       .  S
Ni571       O573   1.900       .  S
O572       Ni577   1.930   1_556  S
C574        O575   1.271       .  A
C574       C2248   1.485       .  S
C579       C2221   1.493       .  S
C579        C580   1.406       .  A
C579        C584   1.411       .  A
C580        C581   1.402       .  A
C580        H585   1.083       .  S
C581       C2228   1.483       .  S
C581        C582   1.402       .  A
C582        C583   1.401       .  A
C582        H586   1.083       .  S
C583       C2208   1.492       .  S
C583        C584   1.409       .  A
C584        H587   1.081       .  S
C588       C2178   1.489       .  S
C588        C589   1.406       .  A
C588        C593   1.401       .  A
C589        C590   1.409       .  A
C589        H594   1.083       .  S
C590       C2198   1.489       .  S
C590        C591   1.409       .  A
C591        C592   1.404       .  A
C591        H595   1.082       .  S
C592       C2188   1.488   1_556  S
C592        C593   1.402       .  A
C593        H596   1.083       .  S
C597       C2158   1.495       .  S
C597        C598   1.414       .  A
C597        C602   1.410       .  A
C598        C599   1.410       .  A
C598        H603   1.082       .  S
C599       C2171   1.486       .  S
C599        C600   1.395       .  A
C600        C601   1.394       .  A
C600        H604   1.084       .  S
C601       C2148   1.478       .  S
C601        C602   1.402       .  A
C602        H605   1.083       .  S
C606       C2138   1.497   1_556  S
C606        C607   1.406       .  A
C606        C611   1.410       .  A
C607        C608   1.405       .  A
C607        H612   1.083       .  S
C608       C2131   1.489       .  S
C608        C609   1.403       .  A
C609        C610   1.405       .  A
C609        H613   1.083       .  S
C610       C2118   1.492       .  S
C610        C611   1.410       .  A
C611        H614   1.082       .  S
O615       Ni623   1.921       .  S
O615        C625   1.282       .  A
O616       Ni623   1.918       .  S
O616        C626   1.279       .  A
O617       Ni623   1.930       .  S
O617        C627   1.284       .  A
O618       Ni623   1.931       .  S
O618        C628   1.285       .  A
O619       Ni624   1.907       .  S
O619        C628   1.279       .  A
O620       Ni624   1.906       .  S
O620        C627   1.279       .  A
O621       Ni624   1.928       .  S
O621        C626   1.283       .  A
O622       Ni624   1.924       .  S
O622        C625   1.283       .  A
Ni623      Ni624   2.387       .  S
C625       C2161   1.482       .  S
C626       C2741   1.475       .  S
C627       C2791   1.481       .  S
C628       C2121   1.479       .  S
O629       Ni637   1.923       .  S
O629        C639   1.283       .  A
O630       Ni637   1.918       .  S
O630        C640   1.283       .  A
O631       Ni637   1.896       .  S
O631        C641   1.276       .  A
O632       Ni637   1.892       .  S
O632        C642   1.277       .  A
O633       Ni638   1.922       .  S
O633        C642   1.282       .  A
O634       Ni638   1.922       .  S
O634        C641   1.284       .  A
O635       Ni638   1.916       .  S
O635        C640   1.280       .  A
O636       Ni638   1.913       .  S
O636        C639   1.280       .  A
Ni637      Ni638   2.388       .  S
C639       C2181   1.477       .  S
C640       C2108   1.480       .  S
C641       C2151   1.465       .  S
C642       C2271   1.473       .  S
O643       Ni651   1.934       .  S
O643        C653   1.285       .  A
O644       Ni651   1.930       .  S
O644        C654   1.285       .  A
O645       Ni651   1.895       .  S
O645        C655   1.276       .  A
O646       Ni651   1.897       .  S
O646        C656   1.276       .  A
O647       Ni652   1.931       .  S
O647        C656   1.285       .  A
O648       Ni652   1.926       .  S
O648        C655   1.285       .  A
O649       Ni652   1.908       .  S
O649        C654   1.279       .  A
O650       Ni652   1.905       .  S
O650        C653   1.278       .  A
Ni651      Ni652   2.387       .  S
C653       C2218   1.477       .  S
C654       C3271   1.482       .  S
C655       C2841   1.478       .  S
C656       C2168   1.471       .  S
O657       Ni665   1.921       .  S
O657        C667   1.282       .  A
O658       Ni665   1.928       .  S
O658        C668   1.284       .  A
O659       Ni665   1.913       .  S
O659        C669   1.281       .  A
O660       Ni665   1.909       .  S
O660        C670   1.278       .  A
O661       Ni666   1.917       .  S
O661        C670   1.282       .  A
O662       Ni666   1.918       .  S
O662        C669   1.281       .  A
O663       Ni666   1.916       .  S
O663        C668   1.281       .  A
O664       Ni666   1.923       .  S
O664        C667   1.282       .  A
Ni665      Ni666   2.389       .  S
C667       C2141   1.479       .  S
C668       C3221   1.490       .  S
C669       C2191   1.475       .  S
C670       C2928   1.465       .  S
O671       Ni679   1.911       .  S
O671        C681   1.280       .  A
O672       Ni679   1.909       .  S
O672        C682   1.279       .  A
O673       Ni679   1.929       .  S
O673        C683   1.285       .  A
O674       Ni679   1.928       .  S
O674        C684   1.283       .  A
O675       Ni680   1.907       .  S
O675        C684   1.279       .  A
O676       Ni680   1.901       .  S
O676        C683   1.278       .  A
O677       Ni680   1.928       .  S
O677        C682   1.285       .  A
O678       Ni680   1.925       .  S
O678        C681   1.283       .  A
Ni679      Ni680   2.387       .  S
C681       C2201   1.477       .  S
C682       C2658   1.485       .  S
C683       C2511   1.483       .  S
C684       C2211   1.474       .  S
O685       Ni693   1.920       .  S
O685        C695   1.282       .  A
O686       Ni693   1.911       .  S
O686        C696   1.281       .  A
O687       Ni693   1.909       .  S
O687        C697   1.282       .  A
O688       Ni693   1.918       .  S
O688        C698   1.281       .  A
O689       Ni694   1.906       .  S
O689        C698   1.280       .  A
O690       Ni694   1.910       .  S
O690        C697   1.279       .  A
O691       Ni694   1.916       .  S
O691        C696   1.282       .  A
O692       Ni694   1.914       .  S
O692        C695   1.281       .  A
Ni693      Ni694   2.389       .  S
C695       C2128   1.476       .  S
C696       C2098   1.480       .  S
C697       C2701   1.472       .  S
C698       C2231   1.470       .  S
C699       C2088   1.491       .  S
C699        C700   1.400       .  A
C699        C704   1.409       .  A
C700        C701   1.401       .  A
C700        H705   1.082       .  S
C701       C2081   1.481       .  S
C701        C702   1.402       .  A
C702        C703   1.406       .  A
C702        H706   1.083       .  S
C703       C2068   1.492       .  S
C703        C704   1.412       .  A
C704        H707   1.082       .  S
O708       Ni716   1.898       .  S
O708        C718   1.276       .  A
O709       Ni716   1.911       .  S
O709        C719   1.279       .  A
O710       Ni716   1.933       .  S
O710        C720   1.285       .  A
O711       Ni716   1.937       .  S
O711        C721   1.287       .  A
O712       Ni717   1.921       .  S
O712        C721   1.280       .  A
O713       Ni717   1.921       .  S
O713        C720   1.280       .  A
O714       Ni717   1.937       .  S
O714        C719   1.286       .  A
O715       Ni717   1.939       .  S
O715        C718   1.286       .  A
Ni716      Ni717   2.386       .  S
C718       C2071   1.476       .  S
C719       C3281   1.488       .  S
C720       C2601   1.480       .  S
C721       C2058   1.492       .  S
C722       C2041   1.492       .  S
C722        C723   1.411       .  A
C722        C727   1.406       .  A
C723        C724   1.406       .  A
C723        H728   1.082       .  S
C724       C2048   1.491   1_554  S
C724        C725   1.403       .  A
C725        C726   1.402       .  A
C725        H729   1.083       .  S
C726       C2028   1.488       .  S
C726        C727   1.405       .  A
C727        H730   1.082       .  S
C731       C1998   1.488       .  S
C731        C732   1.410       .  A
C731        C736   1.401       .  A
C732        C733   1.407       .  A
C732        H737   1.083       .  S
C733       C2018   1.476   1_554  S
C733        C734   1.402       .  A
C734        C735   1.402       .  A
C734        H738   1.084       .  S
C735       C2008   1.481       .  S
C735        C736   1.400       .  A
C736        H739   1.082       .  S
C740       C1988   1.501       .  S
C740        C741   1.407       .  A
C740        C745   1.418       .  A
C741        C742   1.402       .  A
C741        H746   1.082       .  S
C742       C1978   1.490       .  S
C742        C743   1.402       .  A
C743        C744   1.404       .  A
C743        H747   1.083       .  S
C744       C2061   1.500       .  S
C744        C745   1.415       .  A
C745        H748   1.083       .  S
O749       Ni757   1.910       .  S
O749        C759   1.280       .  A
O750       Ni757   1.915       .  S
O750        C760   1.279       .  A
O751       Ni757   1.923       .  S
O751        C761   1.285       .  A
O752       Ni757   1.925       .  S
O752        C762   1.284       .  A
O753       Ni758   1.907       .  S
O753        C762   1.278       .  A
O754       Ni758   1.908       .  S
O754        C761   1.278       .  A
O755       Ni758   1.913       .  S
O755        C760   1.282       .  A
O756       Ni758   1.923       .  S
O756        C759   1.283       .  A
Ni757      Ni758   2.389       .  S
C759       C1981   1.476       .  S
C760       C2751   1.471       .  S
C761       C2891   1.484       .  S
C762       C2001   1.472       .  S
O763       Ni771   1.919       .  S
O763        C773   1.281       .  A
O764       Ni771   1.915       .  S
O764        C774   1.282       .  A
O765       Ni771   1.911       .  S
O765        C775   1.280       .  A
O766       Ni771   1.908       .  S
O766        C776   1.280       .  A
O767       Ni772   1.912       .  S
O767        C776   1.280       .  A
O768       Ni772   1.918       .  S
O768        C775   1.282       .  A
O769       Ni772   1.935       .  S
O769        C774   1.284       .  A
O770       Ni772   1.936       .  S
O770        C773   1.286       .  A
Ni771      Ni772   2.386       .  S
C773       C1991   1.489       .  S
C774       C2261   1.491       .  S
C775       C2031   1.476       .  S
C776       C3208   1.470       .  S
O777       Ni785   1.916       .  S
O777        C787   1.282       .  A
O778       Ni785   1.916       .  S
O778        C788   1.281       .  A
O779       Ni785   1.916       .  S
O779        C789   1.282       .  A
O780       Ni785   1.916       .  S
O780        C790   1.279       .  A
O781       Ni786   1.924       .  S
O781        C790   1.282       .  A
O782       Ni786   1.921       .  S
O782        C789   1.282       .  A
O783       Ni786   1.923       .  S
O783        C788   1.284       .  A
O784       Ni786   1.922       .  S
O784        C787   1.282       .  A
Ni785      Ni786   2.386       .  S
C787       C2051   1.480       .  S
C788       C2801   1.488       .  S
C789       C1971   1.485       .  S
C790       C2021   1.470       .  S
O791       Ni799   1.927       .  S
O791        C801   1.283       .  A
O792       Ni799   1.921       .  S
O792        C802   1.284       .  A
O793       Ni799   1.910       .  S
O793        C803   1.279       .  A
O794       Ni799   1.902       .  S
O794        C804   1.280       .  A
O795       Ni800   1.920       .  S
O795        C804   1.281       .  A
O796       Ni800   1.912       .  S
O796        C803   1.281       .  A
O797       Ni800   1.912       .  S
O797        C802   1.279       .  A
O798       Ni800   1.911       .  S
O798        C801   1.280       .  A
Ni799      Ni800   2.389       .  S
C801       C2038   1.477       .  S
C802       C2538   1.480       .  S
C803       C2078   1.467       .  S
C804       C2688   1.472       .  S
O805       Ni813   1.920       .  S
O805        C815   1.283       .  A
O806       Ni813   1.920       .  S
O806        C816   1.282       .  A
O807       Ni813   1.902       .  S
O807        C817   1.276       .  A
O808       Ni813   1.909       .  S
O808        C818   1.279       .  A
O809       Ni814   1.930       .  S
O809        C818   1.284       .  A
O810       Ni814   1.924       .  S
O810        C817   1.285       .  A
O811       Ni814   1.900       .  S
O811        C816   1.278       .  A
O812       Ni814   1.904       .  S
O812        C815   1.277       .  A
Ni813      Ni814   2.389       .  S
C815       C2011   1.469       .  S
C816       C2311   1.471       .  S
C817       C2491   1.473       .  S
C818       C2091   1.478       .  S
O819       Ni825   1.908       .  S
O819        C840   1.267       .  A
O820       Ni843   1.917       .  S
O820        C829   1.271       .  A
O821       Ni825   1.901       .  S
O821       Ni843   1.914       .  S
O821       Ni837   1.909       .  S
O821        H844   0.966       .  S
C822        O839   1.267       .  A
C822        O831   1.273       .  A
C822       C2981   1.478       .  S
O823       Ni842   1.912       .  S
O823        C829   1.269       .  A
O824       Ni842   1.898       .  S
O824        C826   1.268       .  A
Ni825       O828   1.907       .  S
Ni825       O830   1.894       .  S
C826        O836   1.275       .  A
C826       C1968   1.471       .  S
O827       Ni843   1.914       .  S
O827        C833   1.274       .  A
O828        C833   1.271       .  A
C829       C2111   1.484       .  S
O830        C832   1.266       .  A
O831       Ni842   1.920       .  S
C832        O838   1.278       .  A
C832       C1938   1.477       .  S
C833       C1948   1.470       .  S
H834        O835   0.966       .  S
O835       Ni843   1.923       .  S
O835       Ni837   1.912       .  S
O835       Ni842   1.910       .  S
O836       Ni837   1.938       .  S
Ni837       O841   1.909       .  S
Ni837       O839   1.898       .  S
O838       Ni843   1.954       .  S
C840        O841   1.265       .  A
C840       C1958   1.471       .  S
O845       Ni851   1.914   1_655  S
O845        C866   1.270       .  A
O846       Ni869   1.899       .  S
O846        C855   1.269       .  A
O847       Ni851   1.885       .  S
O847       Ni869   1.888   1_545  S
O847       Ni863   1.905   1_455  S
O847        H870   0.966       .  S
C848        O865   1.274       .  A
C848        O857   1.277       .  A
C848       C1928   1.464       .  S
O849       Ni868   1.922   1_465  S
O849        C855   1.275       .  A
O850       Ni868   1.910   1_455  S
O850        C852   1.271       .  A
Ni851       O854   1.906   1_545  S
Ni851       O856   1.908   1_445  S
C852        O862   1.275       .  A
C852       C1898   1.477       .  S
O853       Ni869   1.933       .  S
O853        C859   1.280       .  A
O854        C859   1.276       .  A
C855       C2331   1.472       .  S
O856        C858   1.270       .  A
O857       Ni868   1.926       .  S
C858        O864   1.274       .  A
C858       C3001   1.474       .  S
C859       C1918   1.477       .  S
H860        O861   0.966   1_565  S
O861       Ni869   1.917   1_645  S
O861       Ni863   1.887       .  S
O861       Ni868   1.888       .  S
O862       Ni863   1.936   1_455  S
Ni863       O867   1.897       .  S
Ni863       O865   1.915       .  S
O864       Ni869   1.937   1_655  S
C866        O867   1.267       .  A
C866       C1908   1.456       .  S
C871       C1868   1.485       .  S
C871        C872   1.402       .  A
C871        C876   1.405       .  A
C872        C873   1.401       .  A
C872        H877   1.082       .  S
C873       C1888   1.485       .  S
C873        C874   1.405       .  A
C874        C875   1.406       .  A
C874        H878   1.082       .  S
C875       C1878   1.489       .  S
C875        C876   1.407       .  A
C876        H879   1.083       .  S
C880       C1858   1.491       .  S
C880        C881   1.405       .  A
C880        C885   1.406       .  A
C881        C882   1.406       .  A
C881        H886   1.083       .  S
C882       C1848   1.489       .  S
C882        C883   1.404       .  A
C883        C884   1.403       .  A
C883        H887   1.084       .  S
C884       C1841   1.479       .  S
C884        C885   1.405       .  A
C885        H888   1.083       .  S
C889       C1818   1.492       .  S
C889        C890   1.403       .  A
C889        C894   1.412       .  A
C890        C891   1.397       .  A
C890        H895   1.083       .  S
C891       C1828   1.483       .  S
C891        C892   1.402       .  A
C892        C893   1.406       .  A
C892        H896   1.083       .  S
C893       C1808   1.496       .  S
C893        C894   1.415       .  A
C894        H897   1.082       .  S
O898       Ni906   1.925       .  S
O898        C908   1.282       .  A
O899       Ni906   1.921       .  S
O899        C909   1.283       .  A
O900       Ni906   1.914       .  S
O900        C910   1.282       .  A
O901       Ni906   1.922       .  S
O901        C911   1.281       .  A
O902       Ni907   1.921       .  S
O902        C911   1.283       .  A
O903       Ni907   1.927       .  S
O903        C910   1.283       .  A
O904       Ni907   1.917       .  S
O904        C909   1.281       .  A
O905       Ni907   1.912       .  S
O905        C908   1.279       .  A
Ni906      Ni907   2.387       .  S
C908       C1838   1.470       .  S
C909       C3201   1.488       .  S
C910       C2298   1.489       .  S
C911       C1821   1.478       .  S
O912       Ni920   1.922       .  S
O912        C922   1.283       .  A
O913       Ni920   1.921       .  S
O913        C923   1.284       .  A
O914       Ni920   1.906       .  S
O914        C924   1.278       .  A
O915       Ni920   1.897       .  S
O915        C925   1.276       .  A
O916       Ni921   1.931       .  S
O916        C925   1.286       .  A
O917       Ni921   1.935       .  S
O917        C924   1.286       .  A
O918       Ni921   1.911       .  S
O918        C923   1.279       .  A
O919       Ni921   1.906       .  S
O919        C922   1.278       .  A
Ni920      Ni921   2.388       .  S
C922       C1871   1.470       .  S
C923       C2831   1.483       .  S
C924       C1811   1.479       .  S
C925       C2641   1.477       .  S
C926       C1778   1.479       .  S
C926        C927   1.402       .  A
C926        C931   1.397       .  A
C927        C928   1.404       .  A
C927        H932   1.082       .  S
C928       C1798   1.481       .  S
C928        C929   1.403       .  A
C929        C930   1.404       .  A
C929        H933   1.083       .  S
C930       C1788   1.477       .  S
C930        C931   1.401       .  A
C931        H934   1.084       .  S
O935       Ni943   1.920       .  S
O935        C945   1.282       .  A
O936       Ni943   1.915       .  S
O936        C946   1.281       .  A
O937       Ni943   1.900       .  S
O937        C947   1.278       .  A
O938       Ni943   1.902       .  S
O938        C948   1.277       .  A
O939       Ni944   1.916       .  S
O939        C948   1.284       .  A
O940       Ni944   1.924       .  S
O940        C947   1.283       .  A
O941       Ni944   1.901       .  S
O941        C946   1.275       .  A
O942       Ni944   1.899       .  S
O942        C945   1.278       .  A
Ni943      Ni944   2.392       .  S
C945       C1781   1.469       .  S
C946       C3291   1.453       .  S
C947       C1831   1.471       .  S
C948       C1951   1.476       .  S
O949       Ni957   1.907       .  S
O949        C959   1.279       .  A
O950       Ni957   1.914       .  S
O950        C960   1.281       .  A
O951       Ni957   1.912       .  S
O951        C961   1.281       .  A
O952       Ni957   1.906       .  S
O952        C962   1.278       .  A
O953       Ni958   1.920       .  S
O953        C962   1.282       .  A
O954       Ni958   1.921       .  S
O954        C961   1.281       .  A
O955       Ni958   1.905       .  S
O955        C960   1.280       .  A
O956       Ni958   1.918       .  S
O956        C959   1.281       .  A
Ni957      Ni958   2.391       .  S
C959       C1891   1.467       .  S
C960       C2591   1.475       .  S
C961       C1851   1.474       .  S
C962       C2811   1.463       .  S
O963       Ni971   1.909       .  S
O963        C973   1.280       .  A
O964       Ni971   1.905       .  S
O964        C974   1.277       .  A
O965       Ni971   1.925       .  S
O965        C975   1.282       .  A
O966       Ni971   1.923       .  S
O966        C976   1.282       .  A
O967       Ni972   1.913       .  S
O967        C976   1.282       .  A
O968       Ni972   1.915       .  S
O968        C975   1.281       .  A
O969       Ni972   1.914       .  S
O969        C974   1.282       .  A
O970       Ni972   1.915       .  S
O970        C973   1.280       .  A
Ni971      Ni972   2.389       .  S
C973       C1801   1.467       .  S
C974       C1911   1.459       .  S
C975       C1861   1.474       .  S
C976       C1768   1.486       .  S
O977       Ni985   1.912       .  S
O977        C987   1.281       .  A
O978       Ni985   1.912       .  S
O978        C988   1.280       .  A
O979       Ni985   1.920       .  S
O979        C989   1.281       .  A
O980       Ni985   1.917       .  S
O980        C990   1.281       .  A
O981       Ni986   1.919       .  S
O981        C990   1.281       .  A
O982       Ni986   1.912       .  S
O982        C989   1.282       .  A
O983       Ni986   1.904       .  S
O983        C988   1.280       .  A
O984       Ni986   1.903       .  S
O984        C987   1.278       .  A
Ni985      Ni986   2.389       .  S
C987       C1791   1.465       .  S
C988       C2481   1.473       .  S
C989       C2251   1.482       .  S
C990       C1881   1.474       .  S
C991       C1758   1.487       .  S
C991        C992   1.406       .  A
C991        C996   1.402       .  A
C992        C993   1.409       .  A
C992        H997   1.083       .  S
C993       C1748   1.492   1_455  S
C993        C994   1.410       .  A
C994        C995   1.405       .  A
C994        H998   1.082       .  S
C995       C1741   1.489       .  S
C995        C996   1.400       .  A
C996        H999   1.083       .  S
O1000     Ni1008   1.912       .  S
O1000      C1010   1.280       .  A
O1001     Ni1008   1.910       .  S
O1001      C1011   1.278       .  A
O1002     Ni1008   1.920       .  S
O1002      C1012   1.283       .  A
O1003     Ni1008   1.921       .  S
O1003      C1013   1.283       .  A
O1004     Ni1009   1.913       .  S
O1004      C1013   1.278       .  A
O1005     Ni1009   1.913       .  S
O1005      C1012   1.280       .  A
O1006     Ni1009   1.924       .  S
O1006      C1011   1.284       .  A
O1007     Ni1009   1.927       .  S
O1007      C1010   1.284       .  A
Ni1008    Ni1009   2.388       .  S
C1010      C1728   1.480       .  S
C1011      C2558   1.471       .  S
C1012      C1738   1.475       .  S
C1013      C2921   1.468       .  S
C1014      C1718   1.495       .  S
C1014      C1015   1.409       .  A
C1014      C1019   1.407       .  A
C1015      C1016   1.407       .  A
C1015      H1020   1.083       .  S
C1016      C1708   1.489       .  S
C1016      C1017   1.404       .  A
C1017      C1018   1.402       .  A
C1017      H1021   1.083       .  S
C1018      C1698   1.488       .  S
C1018      C1019   1.407       .  A
C1019      H1022   1.082       .  S
C1023      C1678   1.492       .  S
C1023      C1024   1.407       .  A
C1023      C1028   1.406       .  A
C1024      C1025   1.408       .  A
C1024      H1029   1.083       .  S
C1025      C1731   1.491       .  S
C1025      C1026   1.405       .  A
C1026      C1027   1.405       .  A
C1026      H1030   1.082       .  S
C1027      C1688   1.487       .  S
C1027      C1028   1.403       .  A
C1028      H1031   1.083       .  S
O1032     Ni1040   1.928       .  S
O1032      C1042   1.284       .  A
O1033     Ni1040   1.933       .  S
O1033      C1043   1.287       .  A
O1034     Ni1040   1.910       .  S
O1034      C1044   1.277       .  A
O1035     Ni1040   1.910       .  S
O1035      C1045   1.280       .  A
O1036     Ni1041   1.926       .  S
O1036      C1045   1.283       .  A
O1037     Ni1041   1.925       .  S
O1037      C1044   1.285       .  A
O1038     Ni1041   1.899       .  S
O1038      C1043   1.276       .  A
O1039     Ni1041   1.904       .  S
O1039      C1042   1.278       .  A
Ni1040    Ni1041   2.388       .  S
C1042      C1701   1.475       .  S
C1043      C3251   1.483       .  S
C1044      C2771   1.473       .  S
C1045      C1681   1.478       .  S
C1046      C1661   1.499       .  S
C1046      C1047   1.411       .  A
C1046      C1051   1.411       .  A
C1047      C1048   1.407       .  A
C1047      H1052   1.082       .  S
C1048      C1668   1.492       .  S
C1048      C1049   1.402       .  A
C1049      C1050   1.402       .  A
C1049      H1053   1.083       .  S
C1050      C1648   1.493   1_455  S
C1050      C1051   1.411       .  A
C1051      H1054   1.082       .  S
O1055     Ni1063   1.906       .  S
O1055      C1065   1.279       .  A
O1056     Ni1063   1.907       .  S
O1056      C1066   1.278       .  A
O1057     Ni1063   1.936       .  S
O1057      C1067   1.285       .  A
O1058     Ni1063   1.932       .  S
O1058      C1068   1.285       .  A
O1059     Ni1064   1.919       .  S
O1059      C1068   1.279       .  A
O1060     Ni1064   1.918       .  S
O1060      C1067   1.281       .  A
O1061     Ni1064   1.931       .  S
O1061      C1066   1.284       .  A
O1062     Ni1064   1.928       .  S
O1062      C1065   1.284       .  A
Ni1063    Ni1064   2.386       .  S
C1065      C1691   1.477       .  S
C1066      C1638   1.476       .  S
C1067      C1658   1.489       .  S
C1068      C2868   1.479       .  S
O1069     Ni1077   1.912       .  S
O1069      C1079   1.281       .  A
O1070     Ni1077   1.909       .  S
O1070      C1080   1.282       .  A
O1071     Ni1077   1.902       .  S
O1071      C1081   1.279       .  A
O1072     Ni1077   1.899       .  S
O1072      C1082   1.277       .  A
O1073     Ni1078   1.938       .  S
O1073      C1082   1.286       .  A
O1074     Ni1078   1.932       .  S
O1074      C1081   1.284       .  A
O1075     Ni1078   1.920       .  S
O1075      C1080   1.279       .  A
O1076     Ni1078   1.923       .  S
O1076      C1079   1.282       .  A
Ni1077    Ni1078   2.388       .  S
C1079      C1751   1.476       .  S
C1080      C1961   1.471       .  S
C1081      C2611   1.486       .  S
C1082      C1651   1.478       .  S
O1083     Ni1091   1.918       .  S
O1083      C1093   1.282       .  A
O1084     Ni1091   1.920       .  S
O1084      C1094   1.282       .  A
O1085     Ni1091   1.929       .  S
O1085      C1095   1.283       .  A
O1086     Ni1091   1.929       .  S
O1086      C1096   1.282       .  A
O1087     Ni1092   1.899       .  S
O1087      C1096   1.280       .  A
O1088     Ni1092   1.911       .  S
O1088      C1095   1.280       .  A
O1089     Ni1092   1.917       .  S
O1089      C1094   1.282       .  A
O1090     Ni1092   1.914       .  S
O1090      C1093   1.280       .  A
Ni1091    Ni1092   2.387       .  S
C1093      C1761   1.474       .  S
C1094      C2631   1.486       .  S
C1095      C1721   1.478       .  S
C1096      C1921   1.478       .  S
O1097     Ni1105   1.914       .  S
O1097      C1107   1.280       .  A
O1098     Ni1105   1.903       .  S
O1098      C1108   1.279       .  A
O1099     Ni1105   1.917       .  S
O1099      C1109   1.283       .  A
O1100     Ni1105   1.918       .  S
O1100      C1110   1.282       .  A
O1101     Ni1106   1.918       .  S
O1101      C1110   1.281       .  A
O1102     Ni1106   1.915       .  S
O1102      C1109   1.281       .  A
O1103     Ni1106   1.921       .  S
O1103      C1108   1.282       .  A
O1104     Ni1106   1.923       .  S
O1104      C1107   1.283       .  A
Ni1105    Ni1106   2.387       .  S
C1107      C1671   1.478       .  S
C1108      C2731   1.473       .  S
C1109      C2681   1.484       .  S
C1110      C1711   1.477       .  S
C1111      C1621   1.482       .  S
C1111      C1112   1.402       .  A
C1111      C1116   1.407       .  A
C1112      C1113   1.404       .  A
C1112      H1117   1.083       .  S
C1113      C1628   1.483       .  S
C1113      C1114   1.403       .  A
C1114      C1115   1.403       .  A
C1114      H1118   1.083       .  S
C1115      C1608   1.487       .  S
C1115      C1116   1.403       .  A
C1116      H1119   1.083       .  S
O1120     Ni1128   1.920       .  S
O1120      C1130   1.281       .  A
O1121     Ni1128   1.914       .  S
O1121      C1131   1.283       .  A
O1122     Ni1128   1.899       .  S
O1122      C1132   1.278       .  A
O1123     Ni1128   1.900       .  S
O1123      C1133   1.277       .  A
O1124     Ni1129   1.925       .  S
O1124      C1133   1.284       .  A
O1125     Ni1129   1.926       .  S
O1125      C1132   1.283       .  A
O1126     Ni1129   1.923       .  S
O1126      C1131   1.280       .  A
O1127     Ni1129   1.922       .  S
O1127      C1130   1.282       .  A
Ni1128    Ni1129   2.390       .  S
C1130      C1598   1.477       .  S
C1131      C3191   1.475       .  S
C1132      C1618   1.469       .  S
C1133      C3241   1.471       .  S
C1134      C1578   1.501       .  S
C1134      C1135   1.412       .  A
C1134      C1139   1.410       .  A
C1135      C1136   1.411       .  A
C1135      H1140   1.082       .  S
C1136      C1601   1.497       .  S
C1136      C1137   1.406       .  A
C1137      C1138   1.403       .  A
C1137      H1141   1.081       .  S
C1138      C1588   1.494       .  S
C1138      C1139   1.407       .  A
C1139      H1142   1.083       .  S
C1143      C1548   1.492       .  S
C1143      C1144   1.403       .  A
C1143      C1148   1.409       .  A
C1144      C1145   1.400       .  A
C1144      H1149   1.083       .  S
C1145      C1568   1.488   1_655  S
C1145      C1146   1.405       .  A
C1146      C1147   1.407       .  A
C1146      H1150   1.082       .  S
C1147      C1558   1.494       .  S
C1147      C1148   1.411       .  A
C1148      H1151   1.082       .  S
C1152      C1538   1.494   1_655  S
C1152      C1153   1.403       .  A
C1152      C1157   1.412       .  A
C1153      C1154   1.400       .  A
C1153      H1158   1.083       .  S
C1154      C1528   1.482       .  S
C1154      C1155   1.400       .  A
C1155      C1156   1.404       .  A
C1155      H1159   1.083       .  S
C1156      C1518   1.492       .  S
C1156      C1157   1.413       .  A
C1157      H1160   1.082       .  S
O1161     Ni1169   1.926       .  S
O1161      C1171   1.284       .  A
O1162     Ni1169   1.924       .  S
O1162      C1172   1.283       .  A
O1163     Ni1169   1.905       .  S
O1163      C1173   1.277       .  A
O1164     Ni1169   1.907       .  S
O1164      C1174   1.279       .  A
O1165     Ni1170   1.933       .  S
O1165      C1174   1.286       .  A
O1166     Ni1170   1.921       .  S
O1166      C1173   1.284       .  A
O1167     Ni1170   1.904       .  S
O1167      C1172   1.276       .  A
O1168     Ni1170   1.905       .  S
O1168      C1171   1.278       .  A
Ni1169    Ni1170   2.390       .  S
C1171      C1571   1.474       .  S
C1172      C2848   1.460       .  S
C1173      C2911   1.472       .  S
C1174      C1541   1.481       .  S
O1175     Ni1183   1.932       .  S
O1175      C1185   1.285       .  A
O1176     Ni1183   1.930       .  S
O1176      C1186   1.284       .  A
O1177     Ni1183   1.922       .  S
O1177      C1187   1.282       .  A
O1178     Ni1183   1.923       .  S
O1178      C1188   1.280       .  A
O1179     Ni1184   1.923       .  S
O1179      C1188   1.282       .  A
O1180     Ni1184   1.930       .  S
O1180      C1187   1.284       .  A
O1181     Ni1184   1.914       .  S
O1181      C1186   1.281       .  A
O1182     Ni1184   1.907       .  S
O1182      C1185   1.278       .  A
Ni1183    Ni1184   2.386       .  S
C1185      C1521   1.479       .  S
C1186      C1941   1.491       .  S
C1187      C1581   1.489       .  S
C1188      C1508   1.474       .  S
O1189     Ni1197   1.915       .  S
O1189      C1199   1.281       .  A
O1190     Ni1197   1.916       .  S
O1190      C1200   1.281       .  A
O1191     Ni1197   1.929       .  S
O1191      C1201   1.284       .  A
O1192     Ni1197   1.933       .  S
O1192      C1202   1.283       .  A
O1193     Ni1198   1.900       .  S
O1193      C1202   1.279       .  A
O1194     Ni1198   1.911       .  S
O1194      C1201   1.280       .  A
O1195     Ni1198   1.915       .  S
O1195      C1200   1.281       .  A
O1196     Ni1198   1.909       .  S
O1196      C1199   1.280       .  A
Ni1197    Ni1198   2.388       .  S
C1199      C1631   1.469       .  S
C1200      C2708   1.479       .  S
C1201      C1561   1.478       .  S
C1202      C2278   1.478       .  S
O1203     Ni1211   1.909       .  S
O1203      C1213   1.279       .  A
O1204     Ni1211   1.911       .  S
O1204      C1214   1.280       .  A
O1205     Ni1211   1.915       .  S
O1205      C1215   1.283       .  A
O1206     Ni1211   1.919       .  S
O1206      C1216   1.282       .  A
O1207     Ni1212   1.915       .  S
O1207      C1216   1.280       .  A
O1208     Ni1212   1.907       .  S
O1208      C1215   1.278       .  A
O1209     Ni1212   1.927       .  S
O1209      C1214   1.285       .  A
O1210     Ni1212   1.932       .  S
O1210      C1213   1.285       .  A
Ni1211    Ni1212   2.387       .  S
C1213      C1591   1.480       .  S
C1214      C2528   1.487       .  S
C1215      C2571   1.475       .  S
C1216      C1551   1.475       .  S
O1217     Ni1225   1.903       .  S
O1217      C1227   1.279       .  A
O1218     Ni1225   1.910       .  S
O1218      C1228   1.280       .  A
O1219     Ni1225   1.907       .  S
O1219      C1229   1.280       .  A
O1220     Ni1225   1.909       .  S
O1220      C1230   1.281       .  A
O1221     Ni1226   1.920       .  S
O1221      C1230   1.281       .  A
O1222     Ni1226   1.925       .  S
O1222      C1229   1.282       .  A
O1223     Ni1226   1.909       .  S
O1223      C1228   1.281       .  A
O1224     Ni1226   1.918       .  S
O1224      C1227   1.281       .  A
Ni1225    Ni1226   2.390       .  S
C1227      C1531   1.467       .  S
C1228      C2318   1.476       .  S
C1229      C1611   1.474       .  S
C1230      C1931   1.472       .  S
O1231     Ni1237   1.927   1_455  S
O1231      C1252   1.274       .  A
O1232     Ni1255   1.906       .  S
O1232      C1241   1.273       .  A
O1233     Ni1237   1.893       .  S
O1233     Ni1255   1.895       .  S
O1233     Ni1249   1.919   1_655  S
O1233      H1256   0.966       .  S
C1234      O1251   1.281       .  A
C1234      O1243   1.279       .  A
C1234      C1501   1.484       .  S
O1235     Ni1254   1.930   1_655  S
O1235      C1241   1.276       .  A
O1236     Ni1254   1.903   1_655  S
O1236      C1238   1.269       .  A
Ni1237     O1240   1.925       .  S
Ni1237     O1242   1.907   1_655  S
C1238      O1248   1.273       .  A
C1238      C2941   1.465       .  S
O1239     Ni1255   1.930       .  S
O1239      C1245   1.278       .  A
O1240      C1245   1.276       .  A
C1241      C1771   1.486       .  S
O1242      C1244   1.270       .  A
O1243     Ni1254   1.925       .  S
C1244      O1250   1.275       .  A
C1244      C1641   1.469       .  S
C1245      C1511   1.480       .  S
H1246      O1247   0.966       .  S
O1247     Ni1255   1.912   1_455  S
O1247     Ni1249   1.889       .  S
O1247     Ni1254   1.885       .  S
O1248     Ni1249   1.931   1_655  S
Ni1249     O1253   1.902       .  S
Ni1249     O1251   1.930       .  S
O1250     Ni1255   1.935   1_455  S
C1252      O1253   1.270       .  A
C1252      C2101   1.483       .  S
C1257      C1488   1.501       .  S
C1257      C1258   1.411       .  A
C1257      C1262   1.415       .  A
C1258      C1259   1.406       .  A
C1258      H1263   1.082       .  S
C1259      C1481   1.484   1_554  S
C1259      C1260   1.397       .  A
C1260      C1261   1.395       .  A
C1260      H1264   1.084       .  S
C1261      C1471   1.478       .  S
C1261      C1262   1.408       .  A
C1262      H1265   1.082       .  S
O1266     Ni1274   1.933       .  S
O1266      C1276   1.285       .  A
O1267     Ni1274   1.941       .  S
O1267      C1277   1.286       .  A
O1268     Ni1274   1.923       .  S
O1268      C1278   1.281       .  A
O1269     Ni1274   1.926       .  S
O1269      C1279   1.281       .  A
O1270     Ni1275   1.922       .  S
O1270      C1279   1.283       .  A
O1271     Ni1275   1.930       .  S
O1271      C1278   1.285       .  A
O1272     Ni1275   1.905       .  S
O1272      C1277   1.279       .  A
O1273     Ni1275   1.905       .  S
O1273      C1276   1.276       .  A
Ni1274    Ni1275   2.384       .  S
C1276      C1468   1.472       .  S
C1277      C2881   1.493       .  S
C1278      C1458   1.488       .  S
C1279      C2671   1.482       .  S
C1280      C1431   1.484       .  S
C1280      C1281   1.409       .  A
C1280      C1285   1.399       .  A
C1281      C1282   1.410       .  A
C1281      H1286   1.083       .  S
C1282      C1448   1.488   1_545  S
C1282      C1283   1.406       .  A
C1283      C1284   1.400       .  A
C1283      H1287   1.082       .  S
C1284      C1441   1.480       .  S
C1284      C1285   1.396       .  A
C1285      H1288   1.083       .  S
C1289      C1421   1.494       .  S
C1289      C1290   1.411       .  A
C1289      C1294   1.405       .  A
C1290      C1291   1.412       .  A
C1290      H1295   1.083       .  S
C1291      C1461   1.500       .  S
C1291      C1292   1.409       .  A
C1292      C1293   1.406       .  A
C1292      H1296   1.083       .  S
C1293      C1408   1.492       .  S
C1293      C1294   1.402       .  A
C1294      H1297   1.081       .  S
O1298     Ni1306   1.901       .  S
O1298      C1308   1.277       .  A
O1299     Ni1306   1.893       .  S
O1299      C1309   1.276       .  A
O1300     Ni1306   1.935       .  S
O1300      C1310   1.285       .  A
O1301     Ni1306   1.932       .  S
O1301      C1311   1.285       .  A
O1302     Ni1307   1.909       .  S
O1302      C1311   1.279       .  A
O1303     Ni1307   1.904       .  S
O1303      C1310   1.278       .  A
O1304     Ni1307   1.930       .  S
O1304      C1309   1.285       .  A
O1305     Ni1307   1.925       .  S
O1305      C1308   1.284       .  A
Ni1306    Ni1307   2.389       .  S
C1308      C1428   1.468       .  S
C1309      C2821   1.478       .  S
C1310      C1901   1.474       .  S
C1311      C1411   1.482       .  S
C1312      C1378   1.495       .  S
C1312      C1313   1.403       .  A
C1312      C1317   1.409       .  A
C1313      C1314   1.404       .  A
C1313      H1318   1.083       .  S
C1314      C1391   1.494   1_545  S
C1314      C1315   1.408       .  A
C1315      C1316   1.411       .  A
C1315      H1319   1.081       .  S
C1316      C1401   1.500       .  S
C1316      C1317   1.412       .  A
C1317      H1320   1.082       .  S
O1321     Ni1329   1.914       .  S
O1321      C1331   1.280       .  A
O1322     Ni1329   1.901       .  S
O1322      C1332   1.280       .  A
O1323     Ni1329   1.912       .  S
O1323      C1333   1.281       .  A
O1324     Ni1329   1.915       .  S
O1324      C1334   1.280       .  A
O1325     Ni1330   1.925       .  S
O1325      C1334   1.283       .  A
O1326     Ni1330   1.925       .  S
O1326      C1333   1.283       .  A
O1327     Ni1330   1.932       .  S
O1327      C1332   1.282       .  A
O1328     Ni1330   1.926       .  S
O1328      C1331   1.284       .  A
Ni1329    Ni1330   2.388       .  S
C1331      C1381   1.483       .  S
C1332      C3178   1.475       .  S
C1333      C2471   1.482       .  S
C1334      C1418   1.478       .  S
O1335     Ni1343   1.919       .  S
O1335      C1345   1.282       .  A
O1336     Ni1343   1.916       .  S
O1336      C1346   1.283       .  A
O1337     Ni1343   1.920       .  S
O1337      C1347   1.280       .  A
O1338     Ni1343   1.922       .  S
O1338      C1348   1.282       .  A
O1339     Ni1344   1.929       .  S
O1339      C1348   1.284       .  A
O1340     Ni1344   1.925       .  S
O1340      C1347   1.283       .  A
O1341     Ni1344   1.912       .  S
O1341      C1346   1.279       .  A
O1342     Ni1344   1.906       .  S
O1342      C1345   1.279       .  A
Ni1343    Ni1344   2.388       .  S
C1345      C1478   1.471       .  S
C1346      C2621   1.475       .  S
C1347      C1498   1.471       .  S
C1348      C1398   1.488       .  S
O1349     Ni1357   1.913       .  S
O1349      C1359   1.279       .  A
O1350     Ni1357   1.915       .  S
O1350      C1360   1.281       .  A
O1351     Ni1357   1.924       .  S
O1351      C1361   1.283       .  A
O1352     Ni1357   1.919       .  S
O1352      C1362   1.282       .  A
O1353     Ni1358   1.924       .  S
O1353      C1362   1.283       .  A
O1354     Ni1358   1.918       .  S
O1354      C1361   1.281       .  A
O1355     Ni1358   1.920       .  S
O1355      C1360   1.282       .  A
O1356     Ni1358   1.923       .  S
O1356      C1359   1.283       .  A
Ni1357    Ni1358   2.386       .  S
C1359      C1451   1.474       .  S
C1360      C2718   1.482       .  S
C1361      C1388   1.480       .  S
C1362      C2521   1.491       .  S
O1363     Ni1371   1.932       .  S
O1363      C1373   1.285       .  A
O1364     Ni1371   1.922       .  S
O1364      C1374   1.282       .  A
O1365     Ni1371   1.901       .  S
O1365      C1375   1.279       .  A
O1366     Ni1371   1.902       .  S
O1366      C1376   1.277       .  A
O1367     Ni1372   1.914       .  S
O1367      C1376   1.281       .  A
O1368     Ni1372   1.912       .  S
O1368      C1375   1.280       .  A
O1369     Ni1372   1.918       .  S
O1369      C1374   1.280       .  A
O1370     Ni1372   1.919       .  S
O1370      C1373   1.281       .  A
Ni1371    Ni1372   2.390       .  S
C1373      C1491   1.486       .  S
C1374      C2291   1.469       .  S
C1375      C2238   1.470       .  S
C1376      C1438   1.464       .  S
C1377      C1378   1.409       .  A
C1377      C1382   1.399       .  A
C1377      H1384   1.083       .  S
C1378      C1379   1.409       .  A
C1379      C1380   1.402       .  A
C1379      F1386   1.357       .  S
C1380      C1381   1.406       .  A
C1380      H1385   1.083       .  S
C1381      C1382   1.406       .  A
C1382      F1383   1.358       .  S
C1387      C1388   1.405       .  A
C1387      C1392   1.403       .  A
C1387      H1394   1.083       .  S
C1388      C1389   1.404       .  A
C1389      C1390   1.397       .  A
C1389      F1396   1.358       .  S
C1390      C1391   1.408       .  A
C1390      H1395   1.083       .  S
C1391      C1392   1.410       .  A
C1392      F1393   1.357       .  S
C1397      C1398   1.405       .  A
C1397      C1402   1.402       .  A
C1397      H1404   1.083       .  S
C1398      C1399   1.408       .  A
C1399      C1400   1.402       .  A
C1399      F1406   1.357       .  S
C1400      C1401   1.409   1_556  A
C1400      H1405   1.083       .  S
C1401      C1402   1.412   1_554  A
C1402      F1403   1.357   1_556  S
C1407      C1408   1.405       .  A
C1407      C1412   1.397       .  A
C1407      H1414   1.083       .  S
C1408      C1409   1.412       .  A
C1409      C1410   1.402       .  A
C1409      F1416   1.357       .  S
C1410      C1411   1.404       .  A
C1410      H1415   1.083       .  S
C1411      C1412   1.408       .  A
C1412      F1413   1.358       .  S
C1417      C1418   1.401       .  A
C1417      C1422   1.398       .  A
C1417      H1424   1.084       .  S
C1418      C1419   1.407       .  A
C1419      C1420   1.402       .  A
C1419      F1426   1.358       .  S
C1420      C1421   1.407       .  A
C1420      H1425   1.083       .  S
C1421      C1422   1.413       .  A
C1422      F1423   1.357       .  S
C1427      C1428   1.403       .  A
C1427      C1432   1.397       .  A
C1427      H1434   1.084       .  S
C1428      C1429   1.401       .  A
C1429      C1430   1.396       .  A
C1429      F1436   1.358       .  S
C1430      C1431   1.409       .  A
C1430      H1435   1.083       .  S
C1431      C1432   1.407       .  A
C1432      F1433   1.357       .  S
C1437      C1438   1.403       .  A
C1437      C1442   1.396       .  A
C1437      H1444   1.083       .  S
C1438      C1439   1.401       .  A
C1439      C1440   1.391   1_655  A
C1439      F1446   1.358       .  S
C1440      C1441   1.407       .  A
C1440      H1445   1.083       .  S
C1441      C1442   1.407   1_455  A
C1442      F1443   1.357       .  S
C1447      C1448   1.406       .  A
C1447      C1452   1.401       .  A
C1447      H1454   1.083       .  S
C1448      C1449   1.411       .  A
C1449      C1450   1.396       .  A
C1449      F1456   1.358   1_565  S
C1450      C1451   1.401       .  A
C1450      H1455   1.084       .  S
C1451      C1452   1.406       .  A
C1452      F1453   1.357       .  S
C1457      C1458   1.404       .  A
C1457      C1462   1.400       .  A
C1457      H1464   1.083       .  S
C1458      C1459   1.409       .  A
C1459      C1460   1.405       .  A
C1459      F1466   1.357       .  S
C1460      C1461   1.409       .  A
C1460      H1465   1.083       .  S
C1461      C1462   1.412       .  A
C1462      F1463   1.357       .  S
C1467      C1468   1.406       .  A
C1467      C1472   1.402       .  A
C1467      H1474   1.083       .  S
C1468      C1469   1.403       .  A
C1469      C1470   1.397       .  A
C1469      F1476   1.358       .  S
C1470      C1471   1.405       .  A
C1470      H1475   1.084       .  S
C1471      C1472   1.404       .  A
C1472      F1473   1.357       .  S
C1477      C1478   1.400       .  A
C1477      C1482   1.395       .  A
C1477      H1484   1.083       .  S
C1478      C1479   1.407       .  A
C1479      C1480   1.397       .  A
C1479      F1486   1.358       .  S
C1480      C1481   1.404       .  A
C1480      H1485   1.083       .  S
C1481      C1482   1.411       .  A
C1482      F1483   1.358   1_556  S
C1487      C1488   1.411       .  A
C1487      C1492   1.401   1_455  A
C1487      H1494   1.082       .  S
C1488      C1489   1.411   1_455  A
C1489      C1490   1.403       .  A
C1489      F1496   1.357       .  S
C1490      C1491   1.406       .  A
C1490      H1495   1.083       .  S
C1491      C1492   1.405       .  A
C1492      F1493   1.358       .  S
C1497      C1498   1.400       .  A
C1497      C1502   1.400       .  A
C1497      H1504   1.084       .  S
C1498      C1499   1.403       .  A
C1499      C1500   1.402       .  A
C1499      F1506   1.357       .  S
C1500      C1501   1.408       .  A
C1500      H1505   1.083       .  S
C1501      C1502   1.410       .  A
C1502      F1503   1.356       .  S
C1507      C1508   1.404       .  A
C1507      C1512   1.404       .  A
C1507      H1514   1.083       .  S
C1508      C1509   1.403       .  A
C1509      C1510   1.399       .  A
C1509      F1516   1.358       .  S
C1510      C1511   1.406       .  A
C1510      H1515   1.084       .  S
C1511      C1512   1.408       .  A
C1512      F1513   1.357       .  S
C1517      C1518   1.410       .  A
C1517      C1522   1.398       .  A
C1517      H1524   1.083       .  S
C1518      C1519   1.408       .  A
C1519      C1520   1.401       .  A
C1519      F1526   1.357       .  S
C1520      C1521   1.406       .  A
C1520      H1525   1.083       .  S
C1521      C1522   1.404       .  A
C1522      F1523   1.358       .  S
C1527      C1528   1.407       .  A
C1527      C1532   1.398       .  A
C1527      H1534   1.083       .  S
C1528      C1529   1.409       .  A
C1529      C1530   1.392       .  A
C1529      F1536   1.358       .  S
C1530      C1531   1.401       .  A
C1530      H1535   1.084       .  S
C1531      C1532   1.404       .  A
C1532      F1533   1.357       .  S
C1537      C1538   1.411       .  A
C1537      C1542   1.399       .  A
C1537      H1544   1.083   1_455  S
C1538      C1539   1.408       .  A
C1539      C1540   1.400       .  A
C1539      F1546   1.357       .  S
C1540      C1541   1.407       .  A
C1540      H1545   1.083       .  S
C1541      C1542   1.404       .  A
C1542      F1543   1.358       .  S
C1547      C1548   1.409       .  A
C1547      C1552   1.395       .  A
C1547      H1554   1.083       .  S
C1548      C1549   1.409       .  A
C1549      C1550   1.401       .  A
C1549      F1556   1.357       .  S
C1550      C1551   1.405       .  A
C1550      H1555   1.083       .  S
C1551      C1552   1.403       .  A
C1552      F1553   1.358       .  S
C1557      C1558   1.406       .  A
C1557      C1562   1.398       .  A
C1557      H1564   1.083       .  S
C1558      C1559   1.413       .  A
C1559      C1560   1.402       .  A
C1559      F1566   1.357       .  S
C1560      C1561   1.402       .  A
C1560      H1565   1.083       .  S
C1561      C1562   1.407       .  A
C1562      F1563   1.358       .  S
C1567      C1568   1.409       .  A
C1567      C1572   1.397       .  A
C1567      H1574   1.083       .  S
C1568      C1569   1.408       .  A
C1569      C1570   1.398       .  A
C1569      F1576   1.357       .  S
C1570      C1571   1.405       .  A
C1570      H1575   1.083       .  S
C1571      C1572   1.403       .  A
C1572      F1573   1.357       .  S
C1577      C1578   1.409       .  A
C1577      C1582   1.401       .  A
C1577      H1584   1.083       .  S
C1578      C1579   1.412       .  A
C1579      C1580   1.404       .  A
C1579      F1586   1.357       .  S
C1580      C1581   1.406       .  A
C1580      H1585   1.083       .  S
C1581      C1582   1.407       .  A
C1582      F1583   1.357       .  S
C1587      C1588   1.406       .  A
C1587      C1592   1.397       .  A
C1587      H1594   1.083       .  S
C1588      C1589   1.412       .  A
C1589      C1590   1.402       .  A
C1589      F1596   1.357       .  S
C1590      C1591   1.403       .  A
C1590      H1595   1.083       .  S
C1591      C1592   1.407       .  A
C1592      F1593   1.358       .  S
C1597      C1598   1.401       .  A
C1597      C1602   1.398       .  A
C1597      H1604   1.084       .  S
C1598      C1599   1.405       .  A
C1599      C1600   1.403       .  A
C1599      F1606   1.357       .  S
C1600      C1601   1.409       .  A
C1600      H1605   1.083       .  S
C1601      C1602   1.413       .  A
C1602      F1603   1.357       .  S
C1607      C1608   1.408       .  A
C1607      C1612   1.402       .  A
C1607      H1614   1.083       .  S
C1608      C1609   1.409       .  A
C1609      C1610   1.393       .  A
C1609      F1616   1.358       .  S
C1610      C1611   1.402       .  A
C1610      H1615   1.084       .  S
C1611      C1612   1.405       .  A
C1612      F1613   1.357       .  S
C1617      C1618   1.402       .  A
C1617      C1622   1.392       .  A
C1617      H1624   1.084       .  S
C1618      C1619   1.404       .  A
C1619      C1620   1.401       .  A
C1619      F1626   1.357       .  S
C1620      C1621   1.409       .  A
C1620      H1625   1.083       .  S
C1621      C1622   1.406       .  A
C1622      F1623   1.358       .  S
C1627      C1628   1.407       .  A
C1627      C1632   1.395       .  A
C1627      H1634   1.083       .  S
C1628      C1629   1.408       .  A
C1629      C1630   1.397       .  A
C1629      F1636   1.357       .  S
C1630      C1631   1.403       .  A
C1630      H1635   1.084       .  S
C1631      C1632   1.403       .  A
C1632      F1633   1.358       .  S
C1637      C1638   1.405       .  A
C1637      C1642   1.403       .  A
C1637      H1644   1.083       .  S
C1638      C1639   1.407       .  A
C1639      C1640   1.395       .  A
C1639      F1646   1.358       .  S
C1640      C1641   1.401       .  A
C1640      H1645   1.084       .  S
C1641      C1642   1.405       .  A
C1642      F1643   1.357       .  S
C1647      C1648   1.412       .  A
C1647      C1652   1.401       .  A
C1647      H1654   1.083       .  S
C1648      C1649   1.407       .  A
C1649      C1650   1.397       .  A
C1649      F1656   1.357   1_655  S
C1650      C1651   1.406       .  A
C1650      H1655   1.084       .  S
C1651      C1652   1.403       .  A
C1652      F1653   1.357       .  S
C1657      C1658   1.405       .  A
C1657      C1662   1.405       .  A
C1657      H1664   1.083       .  S
C1658      C1659   1.409       .  A
C1659      C1660   1.401       .  A
C1659      F1666   1.358       .  S
C1660      C1661   1.407       .  A
C1660      H1665   1.083       .  S
C1661      C1662   1.413       .  A
C1662      F1663   1.357       .  S
C1667      C1668   1.409       .  A
C1667      C1672   1.398       .  A
C1667      H1674   1.083       .  S
C1668      C1669   1.409       .  A
C1669      C1670   1.400       .  A
C1669      F1676   1.357       .  S
C1670      C1671   1.405       .  A
C1670      H1675   1.083       .  S
C1671      C1672   1.404       .  A
C1672      F1673   1.358       .  S
C1677      C1678   1.409       .  A
C1677      C1682   1.402       .  A
C1677      H1684   1.083       .  S
C1678      C1679   1.410       .  A
C1679      C1680   1.395       .  A
C1679      F1686   1.358       .  S
C1680      C1681   1.403       .  A
C1680      H1685   1.084       .  S
C1681      C1682   1.405       .  A
C1682      F1683   1.357       .  S
C1687      C1688   1.408       .  A
C1687      C1692   1.400       .  A
C1687      H1694   1.083       .  S
C1688      C1689   1.407       .  A
C1689      C1690   1.397       .  A
C1689      F1696   1.357       .  S
C1690      C1691   1.405       .  A
C1690      H1695   1.083       .  S
C1691      C1692   1.405       .  A
C1692      F1693   1.357       .  S
C1697      C1698   1.404       .  A
C1697      C1702   1.394       .  A
C1697      H1704   1.083       .  S
C1698      C1699   1.412       .  A
C1699      C1700   1.401       .  A
C1699      F1706   1.357       .  S
C1700      C1701   1.402       .  A
C1700      H1705   1.083       .  S
C1701      C1702   1.407       .  A
C1702      F1703   1.358       .  S
C1707      C1708   1.407       .  A
C1707      C1712   1.399       .  A
C1707      H1714   1.083       .  S
C1708      C1709   1.410       .  A
C1709      C1710   1.398       .  A
C1709      F1716   1.357       .  S
C1710      C1711   1.403       .  A
C1710      H1715   1.083       .  S
C1711      C1712   1.406       .  A
C1712      F1713   1.358       .  S
C1717      C1718   1.407       .  A
C1717      C1722   1.396       .  A
C1717      H1724   1.083       .  S
C1718      C1719   1.413       .  A
C1719      C1720   1.403       .  A
C1719      F1726   1.357       .  S
C1720      C1721   1.403       .  A
C1720      H1725   1.083       .  S
C1721      C1722   1.406       .  A
C1722      F1723   1.358       .  S
C1727      C1728   1.404       .  A
C1727      C1732   1.401       .  A
C1727      H1734   1.083       .  S
C1728      C1729   1.407       .  A
C1729      C1730   1.398       .  A
C1729      F1736   1.358       .  S
C1730      C1731   1.406       .  A
C1730      H1735   1.083       .  S
C1731      C1732   1.411       .  A
C1732      F1733   1.357       .  S
C1737      C1738   1.400       .  A
C1737      C1742   1.395       .  A
C1737      H1744   1.083       .  S
C1738      C1739   1.407       .  A
C1739      C1740   1.400       .  A
C1739      F1746   1.358       .  S
C1740      C1741   1.406       .  A
C1740      H1745   1.083       .  S
C1741      C1742   1.412       .  A
C1742      F1743   1.357       .  S
C1747      C1748   1.407       .  A
C1747      C1752   1.396       .  A
C1747      H1754   1.083   1_655  S
C1748      C1749   1.412       .  A
C1749      C1750   1.402       .  A
C1749      F1756   1.357       .  S
C1750      C1751   1.403       .  A
C1750      H1755   1.083       .  S
C1751      C1752   1.405       .  A
C1752      F1753   1.358       .  S
C1757      C1758   1.406       .  A
C1757      C1762   1.400       .  A
C1757      H1764   1.083       .  S
C1758      C1759   1.411       .  A
C1759      C1760   1.394       .  A
C1759      F1766   1.357       .  S
C1760      C1761   1.401       .  A
C1760      H1765   1.084       .  S
C1761      C1762   1.407       .  A
C1762      F1763   1.357       .  S
C1767      C1768   1.405       .  A
C1767      C1772   1.394       .  A
C1767      H1774   1.083       .  S
C1768      C1769   1.411       .  A
C1769      C1770   1.403       .  A
C1769      F1776   1.357       .  S
C1770      C1771   1.406       .  A
C1770      H1775   1.083       .  S
C1771      C1772   1.411       .  A
C1772      F1773   1.358       .  S
C1777      C1778   1.408       .  A
C1777      C1782   1.395       .  A
C1777      H1784   1.083       .  S
C1778      C1779   1.405       .  A
C1779      C1780   1.394       .  A
C1779      F1786   1.358       .  S
C1780      C1781   1.405       .  A
C1780      H1785   1.084       .  S
C1781      C1782   1.402       .  A
C1782      F1783   1.357       .  S
C1787      C1788   1.406       .  A
C1787      C1792   1.390       .  A
C1787      H1794   1.083       .  S
C1788      C1789   1.406       .  A
C1789      C1790   1.396       .  A
C1789      F1796   1.358       .  S
C1790      C1791   1.404       .  A
C1790      H1795   1.083       .  S
C1791      C1792   1.402       .  A
C1792      F1793   1.358       .  S
C1797      C1798   1.407       .  A
C1797      C1802   1.399       .  A
C1797      H1804   1.083       .  S
C1798      C1799   1.408       .  A
C1799      C1800   1.392       .  A
C1799      F1806   1.358       .  S
C1800      C1801   1.400       .  A
C1800      H1805   1.084       .  S
C1801      C1802   1.405       .  A
C1802      F1803   1.358       .  S
C1807      C1808   1.412       .  A
C1807      C1812   1.400       .  A
C1807      H1814   1.083       .  S
C1808      C1809   1.409       .  A
C1809      C1810   1.401       .  A
C1809      F1816   1.357       .  S
C1810      C1811   1.405       .  A
C1810      H1815   1.083       .  S
C1811      C1812   1.403       .  A
C1812      F1813   1.358       .  S
C1817      C1818   1.408       .  A
C1817      C1822   1.405       .  A
C1817      H1824   1.083       .  S
C1818      C1819   1.411       .  A
C1819      C1820   1.395       .  A
C1819      F1826   1.358       .  S
C1820      C1821   1.400       .  A
C1820      H1825   1.084       .  S
C1821      C1822   1.407       .  A
C1822      F1823   1.357       .  S
C1827      C1828   1.403       .  A
C1827      C1832   1.394       .  A
C1827      H1834   1.083       .  S
C1828      C1829   1.411       .  A
C1829      C1830   1.398       .  A
C1829      F1836   1.357       .  S
C1830      C1831   1.401       .  A
C1830      H1835   1.083       .  S
C1831      C1832   1.407       .  A
C1832      F1833   1.358       .  S
C1837      C1838   1.403       .  A
C1837      C1842   1.398       .  A
C1837      H1844   1.084       .  S
C1838      C1839   1.403       .  A
C1839      C1840   1.401       .  A
C1839      F1846   1.357       .  S
C1840      C1841   1.405       .  A
C1840      H1845   1.083       .  S
C1841      C1842   1.405       .  A
C1842      F1843   1.358       .  S
C1847      C1848   1.408   1_565  A
C1847      C1852   1.402       .  A
C1847      H1854   1.083       .  S
C1848      C1849   1.410       .  A
C1849      C1850   1.394   1_545  A
C1849      F1856   1.357       .  S
C1850      C1851   1.401       .  A
C1850      H1855   1.084       .  S
C1851      C1852   1.406       .  A
C1852      F1853   1.357       .  S
C1857      C1858   1.408       .  A
C1857      C1862   1.402       .  A
C1857      H1864   1.083       .  S
C1858      C1859   1.411       .  A
C1859      C1860   1.397       .  A
C1859      F1866   1.357       .  S
C1860      C1861   1.401       .  A
C1860      H1865   1.084       .  S
C1861      C1862   1.405       .  A
C1862      F1863   1.357       .  S
C1867      C1868   1.406       .  A
C1867      C1872   1.397       .  A
C1867      H1874   1.083       .  S
C1868      C1869   1.410       .  A
C1869      C1870   1.396       .  A
C1869      F1876   1.357       .  S
C1870      C1871   1.400       .  A
C1870      H1875   1.084       .  S
C1871      C1872   1.406       .  A
C1872      F1873   1.358       .  S
C1877      C1878   1.408       .  A
C1877      C1882   1.398       .  A
C1877      H1884   1.083       .  S
C1878      C1879   1.409       .  A
C1879      C1880   1.398       .  A
C1879      F1886   1.357       .  S
C1880      C1881   1.403       .  A
C1880      H1885   1.083       .  S
C1881      C1882   1.405       .  A
C1882      F1883   1.358       .  S
C1887      C1888   1.409       .  A
C1887      C1892   1.396   1_545  A
C1887      H1894   1.083       .  S
C1888      C1889   1.408   1_545  A
C1889      C1890   1.396       .  A
C1889      F1896   1.357       .  S
C1890      C1891   1.402       .  A
C1890      H1895   1.084       .  S
C1891      C1892   1.402       .  A
C1892      F1893   1.358       .  S
C1897      C1898   1.406       .  A
C1897      C1902   1.406       .  A
C1897      H1904   1.083       .  S
C1898      C1899   1.406       .  A
C1899      C1900   1.394       .  A
C1899      F1906   1.358       .  S
C1900      C1901   1.402       .  A
C1900      H1905   1.084       .  S
C1901      C1902   1.406       .  A
C1902      F1903   1.357       .  S
C1907      C1908   1.403       .  A
C1907      C1912   1.389       .  A
C1907      H1914   1.084       .  S
C1908      C1909   1.401       .  A
C1909      C1910   1.400       .  A
C1909      F1916   1.357       .  S
C1910      C1911   1.406       .  A
C1910      H1915   1.083       .  S
C1911      C1912   1.399       .  A
C1912      F1913   1.358       .  S
C1917      C1918   1.407       .  A
C1917      C1922   1.407       .  A
C1917      H1924   1.083       .  S
C1918      C1919   1.408       .  A
C1919      C1920   1.385       .  A
C1919      F1926   1.359       .  S
C1920      C1921   1.401       .  A
C1920      H1925   1.084       .  S
C1921      C1922   1.410       .  A
C1922      F1923   1.357       .  S
C1927      C1928   1.400       .  A
C1927      C1932   1.391       .  A
C1927      H1934   1.084       .  S
C1928      C1929   1.403       .  A
C1929      C1930   1.404       .  A
C1929      F1936   1.357       .  S
C1930      C1931   1.407       .  A
C1930      H1935   1.083       .  S
C1931      C1932   1.404       .  A
C1932      F1933   1.358       .  S
C1937      C1938   1.402       .  A
C1937      C1942   1.397       .  A
C1937      H1944   1.084       .  S
C1938      C1939   1.406       .  A
C1939      C1940   1.404       .  A
C1939      F1946   1.358       .  S
C1940      C1941   1.409       .  A
C1940      H1945   1.083       .  S
C1941      C1942   1.412       .  A
C1942      F1943   1.357       .  S
C1947      C1948   1.400       .  A
C1947      C1952   1.400       .  A
C1947      H1954   1.083       .  S
C1948      C1949   1.410       .  A
C1949      C1950   1.388       .  A
C1949      F1956   1.359       .  S
C1950      C1951   1.400       .  A
C1950      H1955   1.083       .  S
C1951      C1952   1.414       .  A
C1952      F1953   1.357       .  S
C1957      C1958   1.403       .  A
C1957      C1962   1.385       .  A
C1957      H1964   1.084       .  S
C1958      C1959   1.405       .  A
C1959      C1960   1.408       .  A
C1959      F1966   1.357       .  S
C1960      C1961   1.409       .  A
C1960      H1965   1.083       .  S
C1961      C1962   1.400       .  A
C1962      F1963   1.358       .  S
C1967      C1968   1.402       .  A
C1967      C1972   1.403       .  A
C1967      H1974   1.083       .  S
C1968      C1969   1.404       .  A
C1969      C1970   1.395       .  A
C1969      F1976   1.358       .  S
C1970      C1971   1.406       .  A
C1970      H1975   1.083       .  S
C1971      C1972   1.412       .  A
C1972      F1973   1.357       .  S
C1977      C1978   1.406       .  A
C1977      C1982   1.395       .  A
C1977      H1984   1.083       .  S
C1978      C1979   1.411       .  A
C1979      C1980   1.401       .  A
C1979      F1986   1.357       .  S
C1980      C1981   1.403       .  A
C1980      H1985   1.083       .  S
C1981      C1982   1.406       .  A
C1982      F1983   1.358       .  S
C1987      C1988   1.407       .  A
C1987      C1992   1.404       .  A
C1987      H1994   1.083       .  S
C1988      C1989   1.415       .  A
C1989      C1990   1.403       .  A
C1989      F1996   1.358       .  S
C1990      C1991   1.403       .  A
C1990      H1995   1.083       .  S
C1991      C1992   1.410       .  A
C1992      F1993   1.357       .  S
C1997      C1998   1.405       .  A
C1997      C2002   1.400       .  A
C1997      H2004   1.083       .  S
C1998      C1999   1.413       .  A
C1999      C2000   1.396       .  A
C1999      F2006   1.358       .  S
C2000      C2001   1.399       .  A
C2000      H2005   1.084       .  S
C2001      C2002   1.407       .  A
C2002      F2003   1.358       .  S
C2007      C2008   1.405       .  A
C2007      C2012   1.397       .  A
C2007      H2014   1.083       .  S
C2008      C2009   1.409       .  A
C2009      C2010   1.394       .  A
C2009      F2016   1.358       .  S
C2010      C2011   1.401       .  A
C2010      H2015   1.084       .  S
C2011      C2012   1.406       .  A
C2012      F2013   1.358       .  S
C2017      C2018   1.402       .  A
C2017      C2022   1.397       .  A
C2017      H2024   1.084   1_556  S
C2018      C2019   1.406       .  A
C2019      C2020   1.403       .  A
C2019      F2026   1.357       .  S
C2020      C2021   1.403       .  A
C2020      H2025   1.083       .  S
C2021      C2022   1.404       .  A
C2022      F2023   1.358       .  S
C2027      C2028   1.408       .  A
C2027      C2032   1.396       .  A
C2027      H2034   1.083       .  S
C2028      C2029   1.408       .  A
C2029      C2030   1.398       .  A
C2029      F2036   1.357       .  S
C2030      C2031   1.405       .  A
C2030      H2035   1.083       .  S
C2031      C2032   1.405       .  A
C2032      F2033   1.358       .  S
C2037      C2038   1.403       .  A
C2037      C2042   1.402       .  A
C2037      H2044   1.083       .  S
C2038      C2039   1.405       .  A
C2039      C2040   1.396       .  A
C2039      F2046   1.358       .  S
C2040      C2041   1.406       .  A
C2040      H2045   1.083       .  S
C2041      C2042   1.413       .  A
C2042      F2043   1.357       .  S
C2047      C2048   1.407       .  A
C2047      C2052   1.394       .  A
C2047      H2054   1.083       .  S
C2048      C2049   1.410       .  A
C2049      C2050   1.404       .  A
C2049      F2056   1.357       .  S
C2050      C2051   1.406       .  A
C2050      H2055   1.083       .  S
C2051      C2052   1.405       .  A
C2052      F2053   1.358       .  S
C2057      C2058   1.403       .  A
C2057      C2062   1.401       .  A
C2057      H2064   1.083       .  S
C2058      C2059   1.412       .  A
C2059      C2060   1.408       .  A
C2059      F2066   1.357       .  S
C2060      C2061   1.406       .  A
C2060      H2065   1.083       .  S
C2061      C2062   1.413       .  A
C2062      F2063   1.358       .  S
C2067      C2068   1.411       .  A
C2067      C2072   1.401       .  A
C2067      H2074   1.083       .  S
C2068      C2069   1.408       .  A
C2069      C2070   1.397       .  A
C2069      F2076   1.357       .  S
C2070      C2071   1.405       .  A
C2070      H2075   1.084       .  S
C2071      C2072   1.403       .  A
C2072      F2073   1.357       .  S
C2077      C2078   1.399       .  A
C2077      C2082   1.391       .  A
C2077      H2084   1.084       .  S
C2078      C2079   1.406       .  A
C2079      C2080   1.399       .  A
C2079      F2086   1.358       .  S
C2080      C2081   1.406       .  A
C2080      H2085   1.083       .  S
C2081      C2082   1.409       .  A
C2082      F2083   1.358       .  S
C2087      C2088   1.404       .  A
C2087      C2092   1.397       .  A
C2087      H2094   1.083       .  S
C2088      C2089   1.413       .  A
C2089      C2090   1.402       .  A
C2089      F2096   1.358       .  S
C2090      C2091   1.402       .  A
C2090      H2095   1.083       .  S
C2091      C2092   1.407       .  A
C2092      F2093   1.358       .  S
C2097      C2098   1.405       .  A
C2097      C2102   1.398       .  A
C2097      H2104   1.083       .  S
C2098      C2099   1.408       .  A
C2099      C2100   1.394       .  A
C2099      F2106   1.358       .  S
C2100      C2101   1.407       .  A
C2100      H2105   1.083       .  S
C2101      C2102   1.407       .  A
C2102      F2103   1.354       .  S
C2107      C2108   1.408       .  A
C2107      C2112   1.404       .  A
C2107      H2114   1.083       .  S
C2108      C2109   1.404       .  A
C2109      C2110   1.392       .  A
C2109      F2116   1.358       .  S
C2110      C2111   1.408       .  A
C2110      H2115   1.083       .  S
C2111      C2112   1.408       .  A
C2112      F2113   1.357       .  S
C2117      C2118   1.410       .  A
C2117      C2122   1.400       .  A
C2117      H2124   1.083       .  S
C2118      C2119   1.409       .  A
C2119      C2120   1.398       .  A
C2119      F2126   1.357       .  S
C2120      C2121   1.405       .  A
C2120      H2125   1.083       .  S
C2121      C2122   1.404       .  A
C2122      F2123   1.357       .  S
C2127      C2128   1.404       .  A
C2127      C2132   1.400       .  A
C2127      H2134   1.083       .  S
C2128      C2129   1.405       .  A
C2129      C2130   1.396       .  A
C2129      F2136   1.358       .  S
C2130      C2131   1.406       .  A
C2130      H2135   1.083       .  S
C2131      C2132   1.411       .  A
C2132      F2133   1.357       .  S
C2137      C2138   1.409       .  A
C2137      C2142   1.402       .  A
C2137      H2144   1.083       .  S
C2138      C2139   1.413       .  A
C2139      C2140   1.399       .  A
C2139      F2146   1.357   1_554  S
C2140      C2141   1.402       .  A
C2140      H2145   1.084       .  S
C2141      C2142   1.405       .  A
C2142      F2143   1.357       .  S
C2147      C2148   1.407       .  A
C2147      C2152   1.392       .  A
C2147      H2154   1.083       .  S
C2148      C2149   1.405       .  A
C2149      C2150   1.397       .  A
C2149      F2156   1.357       .  S
C2150      C2151   1.405       .  A
C2150      H2155   1.083       .  S
C2151      C2152   1.400       .  A
C2152      F2153   1.358       .  S
C2157      C2158   1.409       .  A
C2157      C2162   1.400       .  A
C2157      H2164   1.083       .  S
C2158      C2159   1.410       .  A
C2159      C2160   1.401       .  A
C2159      F2166   1.357       .  S
C2160      C2161   1.405       .  A
C2160      H2165   1.083       .  S
C2161      C2162   1.405       .  A
C2162      F2163   1.357       .  S
C2167      C2168   1.407       .  A
C2167      C2172   1.399       .  A
C2167      H2174   1.083       .  S
C2168      C2169   1.401       .  A
C2169      C2170   1.394       .  A
C2169      F2176   1.358       .  S
C2170      C2171   1.411       .  A
C2170      H2175   1.083       .  S
C2171      C2172   1.405       .  A
C2172      F2173   1.357       .  S
C2177      C2178   1.405       .  A
C2177      C2182   1.400       .  A
C2177      H2184   1.083       .  S
C2178      C2179   1.412       .  A
C2179      C2180   1.396       .  A
C2179      F2186   1.358       .  S
C2180      C2181   1.401       .  A
C2180      H2185   1.083       .  S
C2181      C2182   1.408       .  A
C2182      F2183   1.357       .  S
C2187      C2188   1.406       .  A
C2187      C2192   1.391       .  A
C2187      H2194   1.083   1_554  S
C2188      C2189   1.410       .  A
C2189      C2190   1.403       .  A
C2189      F2196   1.357       .  S
C2190      C2191   1.405       .  A
C2190      H2195   1.083       .  S
C2191      C2192   1.404       .  A
C2192      F2193   1.358       .  S
C2197      C2198   1.408       .  A
C2197      C2202   1.401       .  A
C2197      H2204   1.083       .  S
C2198      C2199   1.409       .  A
C2199      C2200   1.397       .  A
C2199      F2206   1.357       .  S
C2200      C2201   1.403       .  A
C2200      H2205   1.084       .  S
C2201      C2202   1.405       .  A
C2202      F2203   1.357       .  S
C2207      C2208   1.412       .  A
C2207      C2212   1.402       .  A
C2207      H2214   1.083       .  S
C2208      C2209   1.409       .  A
C2209      C2210   1.396       .  A
C2209      F2216   1.357       .  S
C2210      C2211   1.403       .  A
C2210      H2215   1.084       .  S
C2211      C2212   1.403       .  A
C2212      F2213   1.357       .  S
C2217      C2218   1.405       .  A
C2217      C2222   1.399       .  A
C2217      H2224   1.084       .  S
C2218      C2219   1.402       .  A
C2219      C2220   1.400       .  A
C2219      F2226   1.357       .  S
C2220      C2221   1.411       .  A
C2220      H2225   1.083       .  S
C2221      C2222   1.409       .  A
C2222      F2223   1.357       .  S
C2227      C2228   1.408       .  A
C2227      C2232   1.401       .  A
C2227      H2234   1.083       .  S
C2228      C2229   1.408       .  A
C2229      C2230   1.391       .  A
C2229      F2236   1.358       .  S
C2230      C2231   1.401       .  A
C2230      H2235   1.084       .  S
C2231      C2232   1.405       .  A
C2232      F2233   1.357       .  S
C2237      C2238   1.404       .  A
C2237      C2242   1.397       .  A
C2237      H2244   1.083       .  S
C2238      C2239   1.407       .  A
C2239      C2240   1.389       .  A
C2239      F2246   1.358       .  S
C2240      C2241   1.402       .  A
C2240      H2245   1.084       .  S
C2241      C2242   1.405       .  A
C2242      F2243   1.357       .  S
C2247      C2248   1.406       .  A
C2247      C2252   1.404       .  A
C2247      H2254   1.083       .  S
C2248      C2249   1.411       .  A
C2249      C2250   1.392       .  A
C2249      F2256   1.358       .  S
C2250      C2251   1.402       .  A
C2250      H2255   1.083       .  S
C2251      C2252   1.411       .  A
C2252      F2253   1.357       .  S
C2257      C2258   1.406       .  A
C2257      C2262   1.406       .  A
C2257      H2264   1.084       .  S
C2258      C2259   1.403       .  A
C2259      C2260   1.397       .  A
C2259      F2266   1.358       .  S
C2260      C2261   1.408       .  A
C2260      H2265   1.083       .  S
C2261      C2262   1.411       .  A
C2262      F2263   1.357       .  S
C2267      C2268   1.403       .  A
C2267      C2272   1.386       .  A
C2267      H2274   1.083       .  S
C2268      C2269   1.409       .  A
C2269      C2270   1.400       .  A
C2269      F2276   1.357       .  S
C2270      C2271   1.405       .  A
C2270      H2275   1.083       .  S
C2271      C2272   1.408       .  A
C2272      F2273   1.358       .  S
C2277      C2278   1.408       .  A
C2277      C2282   1.409       .  A
C2277      H2284   1.083       .  S
C2278      C2279   1.406       .  A
C2279      C2280   1.386       .  A
C2279      F2286   1.359       .  S
C2280      C2281   1.402       .  A
C2280      H2285   1.084       .  S
C2281      C2282   1.408       .  A
C2282      F2283   1.357       .  S
C2287      C2288   1.402       .  A
C2287      C2292   1.400       .  A
C2287      H2294   1.083       .  S
C2288      C2289   1.406       .  A
C2289      C2290   1.400       .  A
C2289      F2296   1.357       .  S
C2290      C2291   1.401       .  A
C2290      H2295   1.083       .  S
C2291      C2292   1.405       .  A
C2292      F2293   1.358       .  S
C2297      C2298   1.408       .  A
C2297      C2302   1.397       .  A
C2297      H2304   1.083       .  S
C2298      C2299   1.412       .  A
C2299      C2300   1.404       .  A
C2299      F2306   1.357       .  S
C2300      C2301   1.404       .  A
C2300      H2305   1.084       .  S
C2301      C2302   1.404       .  A
C2302      F2303   1.358       .  S
C2307      C2308   1.408       .  A
C2307      C2312   1.396       .  A
C2307      H2314   1.082       .  S
C2308      C2309   1.404       .  A
C2309      C2310   1.395       .  A
C2309      F2316   1.358       .  S
C2310      C2311   1.406       .  A
C2310      H2315   1.084       .  S
C2311      C2312   1.402       .  A
C2312      F2313   1.357       .  S
C2317      C2318   1.407       .  A
C2317      C2322   1.399       .  A
C2317      H2324   1.083       .  S
C2318      C2319   1.405       .  A
C2319      C2320   1.390       .  A
C2319      F2326   1.358       .  S
C2320      C2321   1.407       .  A
C2320      H2325   1.083       .  S
C2321      C2322   1.407       .  A
C2322      F2323   1.357       .  S
C2327      C2328   1.408       .  A
C2327      C2332   1.404       .  A
C2327      H2334   1.083       .  S
C2328      C2329   1.406       .  A
C2329      C2330   1.386       .  A
C2329      F2336   1.358       .  S
C2330      C2331   1.403       .  A
C2330      H2335   1.084       .  S
C2331      C2332   1.406       .  A
C2332      F2333   1.357       .  S
C2337      C2338   1.408       .  A
C2337      C2342   1.399       .  A
C2337      H2344   1.083       .  S
C2338      C2339   1.410       .  A
C2339      C2340   1.399       .  A
C2339      F2346   1.357       .  S
C2340      C2341   1.404       .  A
C2340      H2345   1.083       .  S
C2341      C2342   1.406       .  A
C2342      F2343   1.357       .  S
C2347      C2348   1.406       .  A
C2347      C2352   1.398       .  A
C2347      H2354   1.083       .  S
C2348      C2349   1.412       .  A
C2349      C2350   1.396       .  A
C2349      F2356   1.357       .  S
C2350      C2351   1.400       .  A
C2350      H2355   1.084       .  S
C2351      C2352   1.406       .  A
C2352      F2353   1.358       .  S
C2357      C2358   1.408       .  A
C2357      C2362   1.401       .  A
C2357      H2364   1.083       .  S
C2358      C2359   1.411       .  A
C2359      C2360   1.394       .  A
C2359      F2366   1.358   1_545  S
C2360      C2361   1.400       .  A
C2360      H2365   1.084       .  S
C2361      C2362   1.404       .  A
C2362      F2363   1.357       .  S
C2367      C2368   1.408       .  A
C2367      C2372   1.398       .  A
C2367      H2374   1.083       .  S
C2368      C2369   1.411       .  A
C2369      C2370   1.400       .  A
C2369      F2376   1.357       .  S
C2370      C2371   1.404       .  A
C2370      H2375   1.083       .  S
C2371      C2372   1.405       .  A
C2372      F2373   1.357       .  S
C2377      C2378   1.403       .  A
C2377      C2382   1.400       .  A
C2377      H2384   1.083       .  S
C2378      C2379   1.402       .  A
C2379      C2380   1.396       .  A
C2379      F2386   1.358       .  S
C2380      C2381   1.402       .  A
C2380      H2385   1.083       .  S
C2381      C2382   1.402       .  A
C2382      F2383   1.357       .  S
C2387      C2388   1.403       .  A
C2387      C2392   1.398       .  A
C2387      H2394   1.084       .  S
C2388      C2389   1.404       .  A
C2389      C2390   1.401       .  A
C2389      F2396   1.357       .  S
C2390      C2391   1.407       .  A
C2390      H2395   1.083       .  S
C2391      C2392   1.408       .  A
C2392      F2393   1.358       .  S
C2397      C2398   1.406       .  A
C2397      C2402   1.402       .  A
C2397      H2404   1.083       .  S
C2398      C2399   1.414       .  A
C2399      C2400   1.396       .  A
C2399      F2406   1.357       .  S
C2400      C2401   1.400       .  A
C2400      H2405   1.084       .  S
C2401      C2402   1.407       .  A
C2402      F2403   1.357       .  S
C2407      C2408   1.407       .  A
C2407      C2412   1.403       .  A
C2407      H2414   1.083       .  S
C2408      C2409   1.408       .  A
C2409      C2410   1.393       .  A
C2409      F2416   1.358       .  S
C2410      C2411   1.401       .  A
C2410      H2415   1.084       .  S
C2411      C2412   1.407       .  A
C2412      F2413   1.357       .  S
C2417      C2418   1.408       .  A
C2417      C2422   1.404       .  A
C2417      H2424   1.083   1_545  S
C2418      C2419   1.409       .  A
C2419      C2420   1.397       .  A
C2419      F2426   1.358       .  S
C2420      C2421   1.403       .  A
C2420      H2425   1.084       .  S
C2421      C2422   1.408       .  A
C2422      F2423   1.357       .  S
C2427      C2428   1.402       .  A
C2427      C2432   1.402       .  A
C2427      H2434   1.083       .  S
C2428      C2429   1.405       .  A
C2429      C2430   1.400       .  A
C2429      F2436   1.358       .  S
C2430      C2431   1.409       .  A
C2430      H2435   1.083       .  S
C2431      C2432   1.414       .  A
C2432      F2433   1.357       .  S
C2437      C2438   1.405       .  A
C2437      C2442   1.391       .  A
C2437      H2444   1.083       .  S
C2438      C2439   1.410       .  A
C2439      C2440   1.397       .  A
C2439      F2446   1.357       .  S
C2440      C2441   1.401       .  A
C2440      H2445   1.083       .  S
C2441      C2442   1.404       .  A
C2442      F2443   1.358       .  S
C2447      C2448   1.401       .  A
C2447      C2452   1.393       .  A
C2447      H2454   1.084       .  S
C2448      C2449   1.403       .  A
C2449      C2450   1.397       .  A
C2449      F2456   1.358       .  S
C2450      C2451   1.407       .  A
C2450      H2455   1.083       .  S
C2451      C2452   1.408       .  A
C2452      F2453   1.358       .  S
C2457      C2458   1.403       .  A
C2457      C2462   1.400       .  A
C2457      H2464   1.083       .  S
C2458      C2459   1.404       .  A
C2459      C2460   1.390       .  A
C2459      F2466   1.358       .  S
C2460      C2461   1.403       .  A
C2460      H2465   1.083       .  S
C2461      C2462   1.409       .  A
C2462      F2463   1.357       .  S
C2467      C2468   1.403       .  A
C2467      C2472   1.400       .  A
C2467      H2474   1.084       .  S
C2468      C2469   1.400       .  A
C2469      C2470   1.398       .  A
C2469      F2476   1.358       .  S
C2470      C2471   1.408       .  A
C2470      H2475   1.083       .  S
C2471      C2472   1.409       .  A
C2472      F2473   1.357       .  S
C2477      C2478   1.407       .  A
C2477      C2482   1.387       .  A
C2477      H2484   1.083       .  S
C2478      C2479   1.408       .  A
C2479      C2480   1.400       .  A
C2479      F2486   1.357       .  S
C2480      C2481   1.406       .  A
C2480      H2485   1.083       .  S
C2481      C2482   1.404       .  A
C2482      F2483   1.358       .  S
C2487      C2488   1.400       .  A
C2487      C2492   1.402       .  A
C2487      H2494   1.083       .  S
C2488      C2489   1.412       .  A
C2489      C2490   1.390       .  A
C2489      F2496   1.359       .  S
C2490      C2491   1.397       .  A
C2490      H2495   1.084       .  S
C2491      C2492   1.412       .  A
C2492      F2493   1.357       .  S
C2497      C2498   1.407       .  A
C2497      C2502   1.394       .  A
C2497      H2504   1.083       .  S
C2498      C2499   1.412       .  A
C2499      C2500   1.395       .  A
C2499      F2506   1.358       .  S
C2500      C2501   1.401       .  A
C2500      H2505   1.084       .  S
C2501      C2502   1.403       .  A
C2502      F2503   1.358       .  S
C2507      C2508   1.410       .  A
C2507      C2512   1.396       .  A
C2507      H2514   1.083       .  S
C2508      C2509   1.405       .  A
C2509      C2510   1.398       .  A
C2509      F2516   1.357       .  S
C2510      C2511   1.410       .  A
C2510      H2515   1.083       .  S
C2511      C2512   1.405       .  A
C2512      F2513   1.358       .  S
C2517      C2518   1.402       .  A
C2517      C2522   1.398       .  A
C2517      H2524   1.084       .  S
C2518      C2519   1.403       .  A
C2519      C2520   1.403       .  A
C2519      F2526   1.358       .  S
C2520      C2521   1.410       .  A
C2520      H2525   1.083       .  S
C2521      C2522   1.411       .  A
C2522      F2523   1.357       .  S
C2527      C2528   1.411       .  A
C2527      C2532   1.400       .  A
C2527      H2534   1.083       .  S
C2528      C2529   1.409       .  A
C2529      C2530   1.398       .  A
C2529      F2536   1.357       .  S
C2530      C2531   1.403       .  A
C2530      H2535   1.084       .  S
C2531      C2532   1.401       .  A
C2532      F2533   1.358       .  S
C2537      C2538   1.401       .  A
C2537      C2542   1.393       .  A
C2537      H2544   1.083       .  S
C2538      C2539   1.411       .  A
C2539      C2540   1.402       .  A
C2539      F2546   1.357       .  S
C2540      C2541   1.403       .  A
C2540      H2545   1.082       .  S
C2541      C2542   1.412       .  A
C2542      F2543   1.358       .  S
C2547      C2548   1.407       .  A
C2547      C2552   1.387       .  A
C2547      H2554   1.084       .  S
C2548      C2549   1.407       .  A
C2549      C2550   1.409       .  A
C2549      F2556   1.357       .  S
C2550      C2551   1.411       .  A
C2550      H2555   1.083       .  S
C2551      C2552   1.404       .  A
C2552      F2553   1.358       .  S
C2557      C2558   1.404       .  A
C2557      C2562   1.402       .  A
C2557      H2564   1.083       .  S
C2558      C2559   1.400       .  A
C2559      C2560   1.395       .  A
C2559      F2566   1.358       .  S
C2560      C2561   1.410       .  A
C2560      H2565   1.083       .  S
C2561      C2562   1.412       .  A
C2562      F2563   1.358       .  S
C2567      C2568   1.408       .  A
C2567      C2572   1.389       .  A
C2567      H2574   1.083       .  S
C2568      C2569   1.406       .  A
C2569      C2570   1.401       .  A
C2569      F2576   1.357       .  S
C2570      C2571   1.409       .  A
C2570      H2575   1.083       .  S
C2571      C2572   1.403       .  A
C2572      F2573   1.358       .  S
C2577      C2578   1.402       .  A
C2577      C2582   1.402       .  A
C2577      H2584   1.083       .  S
C2578      C2579   1.409       .  A
C2579      C2580   1.395       .  A
C2579      F2586   1.358       .  S
C2580      C2581   1.399       .  A
C2580      H2585   1.084       .  S
C2581      C2582   1.408       .  A
C2582      F2583   1.357       .  S
C2587      C2588   1.405       .  A
C2587      C2592   1.391       .  A
C2587      H2594   1.083       .  S
C2588      C2589   1.407       .  A
C2589      C2590   1.397       .  A
C2589      F2596   1.356       .  S
C2590      C2591   1.405       .  A
C2590      H2595   1.083       .  S
C2591      C2592   1.407       .  A
C2592      F2593   1.358       .  S
C2597      C2598   1.408       .  A
C2597      C2602   1.407       .  A
C2597      H2604   1.083       .  S
C2598      C2599   1.409       .  A
C2599      C2600   1.401       .  A
C2599      F2606   1.358       .  S
C2600      C2601   1.402       .  A
C2600      H2605   1.084       .  S
C2601      C2602   1.406       .  A
C2602      F2603   1.357       .  S
C2607      C2608   1.404       .  A
C2607      C2612   1.405       .  A
C2607      H2614   1.083       .  S
C2608      C2609   1.400       .  A
C2609      C2610   1.391       .  A
C2609      F2616   1.358       .  S
C2610      C2611   1.408       .  A
C2610      H2615   1.083       .  S
C2611      C2612   1.411       .  A
C2612      F2613   1.357       .  S
C2617      C2618   1.405       .  A
C2617      C2622   1.403       .  A
C2617      H2624   1.083       .  S
C2618      C2619   1.411       .  A
C2619      C2620   1.390       .  A
C2619      F2626   1.358       .  S
C2620      C2621   1.399       .  A
C2620      H2625   1.084       .  S
C2621      C2622   1.409       .  A
C2622      F2623   1.357       .  S
C2627      C2628   1.402       .  A
C2627      C2632   1.401       .  A
C2627      H2634   1.084       .  S
C2628      C2629   1.402       .  A
C2629      C2630   1.397       .  A
C2629      F2636   1.358       .  S
C2630      C2631   1.407       .  A
C2630      H2635   1.083       .  S
C2631      C2632   1.412       .  A
C2632      F2633   1.357       .  S
C2637      C2638   1.400       .  A
C2637      C2642   1.398       .  A
C2637      H2644   1.083       .  S
C2638      C2639   1.412       .  A
C2639      C2640   1.395       .  A
C2639      F2646   1.358       .  S
C2640      C2641   1.399       .  A
C2640      H2645   1.083       .  S
C2641      C2642   1.412       .  A
C2642      F2643   1.357       .  S
C2647      C2648   1.402       .  A
C2647      C2652   1.386       .  A
C2647      H2654   1.083       .  S
C2648      C2649   1.412       .  A
C2649      C2650   1.407       .  A
C2649      F2656   1.357       .  S
C2650      C2651   1.405       .  A
C2650      H2655   1.083       .  S
C2651      C2652   1.408       .  A
C2652      F2653   1.359       .  S
C2657      C2658   1.407       .  A
C2657      C2662   1.400       .  A
C2657      H2664   1.083       .  S
C2658      C2659   1.413       .  A
C2659      C2660   1.397       .  A
C2659      F2666   1.358       .  S
C2660      C2661   1.400       .  A
C2660      H2665   1.084       .  S
C2661      C2662   1.402       .  A
C2662      F2663   1.357       .  S
C2667      C2668   1.410       .  A
C2667      C2672   1.396       .  A
C2667      H2674   1.083       .  S
C2668      C2669   1.412       .  A
C2669      C2670   1.407       .  A
C2669      F2676   1.356       .  S
C2670      C2671   1.406       .  A
C2670      H2675   1.083       .  S
C2671      C2672   1.402       .  A
C2672      F2673   1.358       .  S
C2677      C2678   1.401       .  A
C2677      C2682   1.401       .  A
C2677      H2684   1.084       .  S
C2678      C2679   1.405       .  A
C2679      C2680   1.394       .  A
C2679      F2686   1.358       .  S
C2680      C2681   1.405       .  A
C2680      H2685   1.083       .  S
C2681      C2682   1.413       .  A
C2682      F2683   1.357       .  S
C2687      C2688   1.401       .  A
C2687      C2692   1.389       .  A
C2687      H2694   1.084       .  S
C2688      C2689   1.409       .  A
C2689      C2690   1.402       .  A
C2689      F2696   1.357       .  S
C2690      C2691   1.403       .  A
C2690      H2695   1.083       .  S
C2691      C2692   1.407       .  A
C2692      F2693   1.359       .  S
C2697      C2698   1.405       .  A
C2697      C2702   1.401       .  A
C2697      H2704   1.082       .  S
C2698      C2699   1.413       .  A
C2699      C2700   1.388       .  A
C2699      F2706   1.359       .  S
C2700      C2701   1.399       .  A
C2700      H2705   1.084       .  S
C2701      C2702   1.408       .  A
C2702      F2703   1.357       .  S
C2707      C2708   1.407       .  A
C2707      C2712   1.398       .  A
C2707      H2714   1.083       .  S
C2708      C2709   1.409       .  A
C2709      C2710   1.397       .  A
C2709      F2716   1.357       .  S
C2710      C2711   1.400       .  A
C2710      H2715   1.084   1_655  S
C2711      C2712   1.401       .  A
C2712      F2713   1.358       .  S
C2717      C2718   1.408       .  A
C2717      C2722   1.401       .  A
C2717      H2724   1.083       .  S
C2718      C2719   1.407       .  A
C2719      C2720   1.397       .  A
C2719      F2726   1.358       .  S
C2720      C2721   1.407       .  A
C2720      H2725   1.084       .  S
C2721      C2722   1.406       .  A
C2722      F2723   1.357       .  S
C2727      C2728   1.403       .  A
C2727      C2732   1.392       .  A
C2727      H2734   1.083       .  S
C2728      C2729   1.408       .  A
C2729      C2730   1.400       .  A
C2729      F2736   1.358       .  S
C2730      C2731   1.404       .  A
C2730      H2735   1.083       .  S
C2731      C2732   1.406       .  A
C2732      F2733   1.358       .  S
C2737      C2738   1.411       .  A
C2737      C2742   1.395       .  A
C2737      H2744   1.083       .  S
C2738      C2739   1.411       .  A
C2739      C2740   1.408       .  A
C2739      F2746   1.357       .  S
C2740      C2741   1.406       .  A
C2740      H2745   1.083       .  S
C2741      C2742   1.400       .  A
C2742      F2743   1.358       .  S
C2747      C2748   1.402       .  A
C2747      C2752   1.388       .  A
C2747      H2754   1.084       .  S
C2748      C2749   1.404       .  A
C2749      C2750   1.405       .  A
C2749      F2756   1.357       .  S
C2750      C2751   1.408       .  A
C2750      H2755   1.083       .  S
C2751      C2752   1.401       .  A
C2752      F2753   1.358       .  S
C2757      C2758   1.405       .  A
C2757      C2762   1.391       .  A
C2757      H2764   1.083       .  S
C2758      C2759   1.406       .  A
C2759      C2760   1.399       .  A
C2759      F2766   1.357       .  S
C2760      C2761   1.407       .  A
C2760      H2765   1.083       .  S
C2761      C2762   1.407       .  A
C2762      F2763   1.358       .  S
C2767      C2768   1.409       .  A
C2767      C2772   1.393       .  A
C2767      H2774   1.083       .  S
C2768      C2769   1.410       .  A
C2769      C2770   1.404       .  A
C2769      F2776   1.358       .  S
C2770      C2771   1.406       .  A
C2770      H2775   1.083       .  S
C2771      C2772   1.400       .  A
C2772      F2773   1.358       .  S
C2777      C2778   1.403       .  A
C2777      C2782   1.401       .  A
C2777      H2784   1.084       .  S
C2778      C2779   1.403       .  A
C2779      C2780   1.393       .  A
C2779      F2786   1.358       .  S
C2780      C2781   1.407       .  A
C2780      H2785   1.083       .  S
C2781      C2782   1.411       .  A
C2782      F2783   1.357       .  S
C2787      C2788   1.401       .  A
C2787      C2792   1.393       .  A
C2787      H2794   1.084       .  S
C2788      C2789   1.406       .  A
C2789      C2790   1.404       .  A
C2789      F2796   1.357       .  S
C2790      C2791   1.407       .  A
C2790      H2795   1.083       .  S
C2791      C2792   1.409       .  A
C2792      F2793   1.358       .  S
C2797      C2798   1.402       .  A
C2797      C2802   1.402       .  A
C2797      H2804   1.083       .  S
C2798      C2799   1.406       .  A
C2799      C2800   1.398       .  A
C2799      F2806   1.358       .  S
C2800      C2801   1.406       .  A
C2800      H2805   1.083       .  S
C2801      C2802   1.413       .  A
C2802      F2803   1.357       .  S
C2807      C2808   1.407       .  A
C2807      C2812   1.398       .  A
C2807      H2814   1.083       .  S
C2808      C2809   1.407       .  A
C2809      C2810   1.394       .  A
C2809      F2816   1.353       .  S
C2810      C2811   1.399       .  A
C2810      H2815   1.084       .  S
C2811      C2812   1.403       .  A
C2812      F2813   1.358       .  S
C2817      C2818   1.407       .  A
C2817      C2822   1.397       .  A
C2817      H2824   1.083       .  S
C2818      C2819   1.400       .  A
C2819      C2820   1.394       .  A
C2819      F2826   1.357       .  S
C2820      C2821   1.410       .  A
C2820      H2825   1.083       .  S
C2821      C2822   1.406       .  A
C2822      F2823   1.357       .  S
C2827      C2828   1.402       .  A
C2827      C2832   1.402       .  A
C2827      H2834   1.083       .  S
C2828      C2829   1.409       .  A
C2829      C2830   1.393       .  A
C2829      F2836   1.358       .  S
C2830      C2831   1.402       .  A
C2830      H2835   1.083       .  S
C2831      C2832   1.413       .  A
C2832      F2833   1.357       .  S
C2837      C2838   1.401       .  A
C2837      C2842   1.397       .  A
C2837      H2844   1.083       .  S
C2838      C2839   1.414       .  A
C2839      C2840   1.393       .  A
C2839      F2846   1.358       .  S
C2840      C2841   1.400       .  A
C2840      H2845   1.083       .  S
C2841      C2842   1.413       .  A
C2842      F2843   1.357       .  S
C2847      C2848   1.393       .  A
C2847      C2852   1.387       .  A
C2847      H2854   1.084       .  S
C2848      C2849   1.408       .  A
C2849      C2850   1.407       .  A
C2849      F2856   1.357       .  S
C2850      C2851   1.403       .  A
C2850      H2855   1.083       .  S
C2851      C2852   1.408       .  A
C2852      F2853   1.358       .  S
C2857      C2858   1.399       .  A
C2857      C2862   1.398       .  A
C2857      H2864   1.084       .  S
C2858      C2859   1.408       .  A
C2859      C2860   1.405       .  A
C2859      F2866   1.357       .  S
C2860      C2861   1.403       .  A
C2860      H2865   1.083       .  S
C2861      C2862   1.407       .  A
C2862      F2863   1.358       .  S
C2867      C2868   1.397       .  A
C2867      C2872   1.397       .  A
C2867      H2874   1.084       .  S
C2868      C2869   1.409       .  A
C2869      C2870   1.409       .  A
C2869      F2876   1.357       .  S
C2870      C2871   1.407       .  A
C2870      H2875   1.083       .  S
C2871      C2872   1.415       .  A
C2872      F2873   1.358       .  S
C2877      C2878   1.401       .  A
C2877      C2882   1.394       .  A
C2877      H2884   1.084       .  S
C2878      C2879   1.407       .  A
C2879      C2880   1.408       .  A
C2879      F2886   1.357       .  S
C2880      C2881   1.410       .  A
C2880      H2885   1.083       .  S
C2881      C2882   1.413       .  A
C2882      F2883   1.358       .  S
C2887      C2888   1.403       .  A
C2887      C2892   1.401       .  A
C2887      H2894   1.083       .  S
C2888      C2889   1.414       .  A
C2889      C2890   1.393       .  A
C2889      F2896   1.358       .  S
C2890      C2891   1.401       .  A
C2890      H2895   1.083       .  S
C2891      C2892   1.413       .  A
C2892      F2893   1.357       .  S
C2897      C2898   1.410       .  A
C2897      C2902   1.401       .  A
C2897      H2904   1.083       .  S
C2898      C2899   1.410       .  A
C2899      C2900   1.400       .  A
C2899      F2906   1.357       .  S
C2900      C2901   1.402       .  A
C2900      H2905   1.084       .  S
C2901      C2902   1.401       .  A
C2902      F2903   1.358       .  S
C2907      C2908   1.403       .  A
C2907      C2912   1.399       .  A
C2907      H2914   1.082       .  S
C2908      C2909   1.410       .  A
C2909      C2910   1.393       .  A
C2909      F2916   1.358       .  S
C2910      C2911   1.399       .  A
C2910      H2915   1.084       .  S
C2911      C2912   1.409       .  A
C2912      F2913   1.357       .  S
C2917      C2918   1.410       .  A
C2917      C2922   1.401       .  A
C2917      H2924   1.082       .  S
C2918      C2919   1.413       .  A
C2919      C2920   1.396       .  A
C2919      F2926   1.357       .  S
C2920      C2921   1.398       .  A
C2920      H2925   1.084       .  S
C2921      C2922   1.402       .  A
C2922      F2923   1.358       .  S
C2927      C2928   1.404       .  A
C2927      C2932   1.402       .  A
C2927      H2934   1.083       .  S
C2928      C2929   1.399       .  A
C2929      C2930   1.391       .  A
C2929      F2936   1.358       .  S
C2930      C2931   1.409       .  A
C2930      H2935   1.083       .  S
C2931      C2932   1.410       .  A
C2932      F2933   1.357       .  S
C2937      C2938   1.403       .  A
C2937      C2942   1.395       .  A
C2937      H2944   1.083       .  S
C2938      C2939   1.409       .  A
C2939      C2940   1.401       .  A
C2939      F2946   1.357       .  S
C2940      C2941   1.400       .  A
C2940      H2945   1.083       .  S
C2941      C2942   1.405       .  A
C2942      F2943   1.358   1_655  S
C2947      C2948   1.407       .  A
C2947      C2952   1.400       .  A
C2947      H2954   1.083       .  S
C2948      C2949   1.408       .  A
C2949      C2950   1.400       .  A
C2949      F2956   1.357       .  S
C2950      C2951   1.403       .  A
C2950      H2955   1.084   1_556  S
C2951      C2952   1.402       .  A
C2952      F2953   1.357       .  S
C2957      C2958   1.392       .  A
C2957      C2962   1.382       .  A
C2957      H2964   1.085       .  S
C2958      C2959   1.409       .  A
C2959      C2960   1.412       .  A
C2959      F2966   1.357       .  S
C2960      C2961   1.408       .  A
C2960      H2965   1.083       .  S
C2961      C2962   1.413       .  A
C2962      F2963   1.359       .  S
C2967      C2968   1.399       .  A
C2967      C2972   1.398       .  A
C2967      H2974   1.084       .  S
C2968      C2969   1.404       .  A
C2969      C2970   1.398       .  A
C2969      F2976   1.358       .  S
C2970      C2971   1.405       .  A
C2970      H2975   1.083       .  S
C2971      C2972   1.409       .  A
C2972      F2973   1.355       .  S
C2977      C2978   1.396       .  A
C2977      C2982   1.394       .  A
C2977      H2984   1.084       .  S
C2978      C2979   1.401       .  A
C2979      C2980   1.396       .  A
C2979      F2986   1.358       .  S
C2980      C2981   1.406       .  A
C2980      H2985   1.083       .  S
C2981      C2982   1.414       .  A
C2982      F2983   1.358       .  S
C2987      C2988   1.412       .  A
C2987      C2992   1.410       .  A
C2987      H2994   1.083       .  S
C2988      C2989   1.409       .  A
C2989      C2990   1.390       .  A
C2989      F2996   1.358       .  S
C2990      C2991   1.404       .  A
C2990      H2995   1.084       .  S
C2991      C2992   1.407       .  A
C2992      F2993   1.357       .  S
C2997      C2998   1.406       .  A
C2997      C3002   1.407       .  A
C2997      H3004   1.083       .  S
C2998      C2999   1.407       .  A
C2999      C3000   1.395       .  A
C2999      F3006   1.358       .  S
C3000      C3001   1.401       .  A
C3000      H3005   1.084       .  S
C3001      C3002   1.407       .  A
C3002      F3003   1.357       .  S
C3007      C3008   1.400       .  A
C3007      C3012   1.402       .  A
C3007      H3014   1.083       .  S
C3008      C3009   1.406       .  A
C3009      C3010   1.405       .  A
C3009      F3016   1.358       .  S
C3010      C3011   1.407       .  A
C3010      H3015   1.081       .  S
C3011      C3012   1.414       .  A
C3012      F3013   1.357       .  S
C3017      C3018   1.401       .  A
C3017      C3022   1.395       .  A
C3017      H3024   1.084       .  S
C3018      C3019   1.408       .  A
C3019      C3020   1.402       .  A
C3019      F3026   1.357       .  S
C3020      C3021   1.402       .  A
C3020      H3025   1.083       .  S
C3021      C3022   1.406       .  A
C3022      F3023   1.358       .  S
C3027      C3028   1.408       .  A
C3027      C3032   1.406       .  A
C3027      H3034   1.083       .  S
C3028      C3029   1.405       .  A
C3029      C3030   1.391       .  A
C3029      F3036   1.358       .  S
C3030      C3031   1.408       .  A
C3030      H3035   1.083       .  S
C3031      C3032   1.410       .  A
C3032      F3033   1.356       .  S
C3037      C3038   1.398       .  A
C3037      C3042   1.391       .  A
C3037      H3044   1.084       .  S
C3038      C3039   1.412       .  A
C3039      C3040   1.401       .  A
C3039      F3046   1.357       .  S
C3040      C3041   1.400       .  A
C3040      H3045   1.083       .  S
C3041      C3042   1.410       .  A
C3042      F3043   1.358       .  S
C3047      C3048   1.409       .  A
C3047      C3052   1.406       .  A
C3047      H3054   1.083       .  S
C3048      C3049   1.399       .  A
C3049      C3050   1.388       .  A
C3049      F3056   1.358       .  S
C3050      C3051   1.404       .  A
C3050      H3055   1.084       .  S
C3051      C3052   1.403       .  A
C3052      F3053   1.357       .  S
C3057      C3058   1.408       .  A
C3057      C3062   1.405       .  A
C3057      H3064   1.083       .  S
C3058      C3059   1.414       .  A
C3059      C3060   1.400       .  A
C3059      F3066   1.357       .  S
C3060      C3061   1.402       .  A
C3060      H3065   1.083       .  S
C3061      C3062   1.410       .  A
C3062      F3063   1.357       .  S
C3067      C3068   1.405       .  A
C3067      C3072   1.395       .  A
C3067      H3074   1.083   1_455  S
C3068      C3069   1.412       .  A
C3069      C3070   1.403       .  A
C3069      F3076   1.357       .  S
C3070      C3071   1.403       .  A
C3070      H3075   1.083       .  S
C3071      C3072   1.407       .  A
C3072      F3073   1.358       .  S
C3077      C3078   1.411       .  A
C3077      C3082   1.400       .  A
C3077      H3084   1.083       .  S
C3078      C3079   1.411       .  A
C3079      C3080   1.402       .  A
C3079      F3086   1.357       .  S
C3080      C3081   1.405       .  A
C3080      H3085   1.083       .  S
C3081      C3082   1.405       .  A
C3082      F3083   1.358       .  S
C3087      C3088   1.406       .  A
C3087      C3092   1.398       .  A
C3087      H3094   1.083       .  S
C3088      C3089   1.409       .  A
C3089      C3090   1.388       .  A
C3089      F3096   1.358       .  S
C3090      C3091   1.399       .  A
C3090      H3095   1.084       .  S
C3091      C3092   1.405       .  A
C3092      F3093   1.357       .  S
C3097      C3098   1.406       .  A
C3097      C3102   1.402       .  A
C3097      H3104   1.083       .  S
C3098      C3099   1.410       .  A
C3099      C3100   1.393       .  A
C3099      F3106   1.358   1_554  S
C3100      C3101   1.400       .  A
C3100      H3105   1.084       .  S
C3101      C3102   1.406       .  A
C3102      F3103   1.357       .  S
C3107      C3108   1.410       .  A
C3107      C3112   1.395       .  A
C3107      H3114   1.083       .  S
C3108      C3109   1.405       .  A
C3109      C3110   1.398       .  A
C3109      F3116   1.357       .  S
C3110      C3111   1.408       .  A
C3110      H3115   1.083       .  S
C3111      C3112   1.402       .  A
C3112      F3113   1.358       .  S
C3117      C3118   1.406       .  A
C3117      C3122   1.397       .  A
C3117      H3124   1.083       .  S
C3118      C3119   1.411       .  A
C3119      C3120   1.398       .  A
C3119      F3126   1.357   1_545  S
C3120      C3121   1.402       .  A
C3120      H3125   1.083       .  S
C3121      C3122   1.406       .  A
C3122      F3123   1.358       .  S
C3127      C3128   1.407       .  A
C3127      C3132   1.399       .  A
C3127      H3134   1.083       .  S
C3128      C3129   1.413       .  A
C3129      C3130   1.401       .  A
C3129      F3136   1.357       .  S
C3130      C3131   1.403       .  A
C3130      H3135   1.083       .  S
C3131      C3132   1.405       .  A
C3132      F3133   1.357       .  S
C3137      C3138   1.407       .  A
C3137      C3142   1.400       .  A
C3137      H3144   1.083   1_554  S
C3138      C3139   1.411       .  A
C3139      C3140   1.398       .  A
C3139      F3146   1.357       .  S
C3140      C3141   1.402       .  A
C3140      H3145   1.083       .  S
C3141      C3142   1.407       .  A
C3142      F3143   1.358       .  S
C3147      C3148   1.407       .  A
C3147      C3152   1.400       .  A
C3147      H3154   1.082       .  S
C3148      C3149   1.415       .  A
C3149      C3150   1.406       .  A
C3149      F3156   1.357       .  S
C3150      C3151   1.404       .  A
C3150      H3155   1.083       .  S
C3151      C3152   1.409       .  A
C3152      F3153   1.358       .  S
C3157      C3158   1.409       .  A
C3157      C3162   1.396       .  A
C3157      H3164   1.083       .  S
C3158      C3159   1.408       .  A
C3159      C3160   1.400       .  A
C3159      F3166   1.357       .  S
C3160      C3161   1.405       .  A
C3160      H3165   1.083       .  S
C3161      C3162   1.404       .  A
C3162      F3163   1.358       .  S
C3167      C3168   1.409       .  A
C3167      C3172   1.397       .  A
C3167      H3174   1.083       .  S
C3168      C3169   1.407       .  A
C3169      C3170   1.402       .  A
C3169      F3176   1.357       .  S
C3170      C3171   1.407       .  A
C3170      H3175   1.083       .  S
C3171      C3172   1.403       .  A
C3172      F3173   1.358       .  S
C3177      C3178   1.399       .  A
C3177      C3182   1.386       .  A
C3177      H3184   1.084       .  S
C3178      C3179   1.410       .  A
C3179      C3180   1.410       .  A
C3179      F3186   1.357       .  S
C3180      C3181   1.407       .  A
C3180      H3185   1.083       .  S
C3181      C3182   1.405       .  A
C3182      F3183   1.359       .  S
C3187      C3188   1.402       .  A
C3187      C3192   1.390       .  A
C3187      H3194   1.084       .  S
C3188      C3189   1.405       .  A
C3189      C3190   1.408       .  A
C3189      F3196   1.357       .  S
C3190      C3191   1.409       .  A
C3190      H3195   1.083       .  S
C3191      C3192   1.402       .  A
C3192      F3193   1.358       .  S
C3197      C3198   1.403       .  A
C3197      C3202   1.397       .  A
C3197      H3204   1.084       .  S
C3198      C3199   1.404       .  A
C3199      C3200   1.402       .  A
C3199      F3206   1.357       .  S
C3200      C3201   1.409       .  A
C3200      H3205   1.083       .  S
C3201      C3202   1.411       .  A
C3202      F3203   1.358       .  S
C3207      C3208   1.402       .  A
C3207      C3212   1.394       .  A
C3207      H3214   1.083       .  S
C3208      C3209   1.405       .  A
C3209      C3210   1.395       .  A
C3209      F3216   1.358       .  S
C3210      C3211   1.407       .  A
C3210      H3215   1.083       .  S
C3211      C3212   1.410       .  A
C3212      F3213   1.358       .  S
C3217      C3218   1.404       .  A
C3217      C3222   1.398       .  A
C3217      H3224   1.084       .  S
C3218      C3219   1.405       .  A
C3219      C3220   1.403       .  A
C3219      F3226   1.357       .  S
C3220      C3221   1.409       .  A
C3220      H3225   1.083       .  S
C3221      C3222   1.411       .  A
C3222      F3223   1.358       .  S
C3227      C3228   1.404       .  A
C3227      C3232   1.394       .  A
C3227      H3234   1.083       .  S
C3228      C3229   1.408       .  A
C3229      C3230   1.398       .  A
C3229      F3236   1.358       .  S
C3230      C3231   1.406       .  A
C3230      H3235   1.083       .  S
C3231      C3232   1.408       .  A
C3232      F3233   1.358       .  S
C3237      C3238   1.409       .  A
C3237      C3242   1.394       .  A
C3237      H3244   1.083       .  S
C3238      C3239   1.405       .  A
C3239      C3240   1.398       .  A
C3239      F3246   1.355       .  S
C3240      C3241   1.406       .  A
C3240      H3245   1.083       .  S
C3241      C3242   1.402       .  A
C3242      F3243   1.358       .  S
C3247      C3248   1.401       .  A
C3247      C3252   1.400       .  A
C3247      H3254   1.083       .  S
C3248      C3249   1.415       .  A
C3249      C3250   1.395       .  A
C3249      F3256   1.358       .  S
C3250      C3251   1.400       .  A
C3250      H3255   1.083       .  S
C3251      C3252   1.414       .  A
C3252      F3253   1.357       .  S
C3257      C3258   1.407       .  A
C3257      C3262   1.390       .  A
C3257      H3264   1.083       .  S
C3258      C3259   1.411       .  A
C3259      C3260   1.399       .  A
C3259      F3266   1.358       .  S
C3260      C3261   1.400       .  A
C3260      H3265   1.084       .  S
C3261      C3262   1.398       .  A
C3262      F3263   1.358       .  S
C3267      C3268   1.403       .  A
C3267      C3272   1.402       .  A
C3267      H3274   1.083       .  S
C3268      C3269   1.402       .  A
C3269      C3270   1.397       .  A
C3269      F3276   1.358       .  S
C3270      C3271   1.407       .  A
C3270      H3275   1.083       .  S
C3271      C3272   1.408       .  A
C3272      F3273   1.357       .  S
C3277      C3278   1.401       .  A
C3277      C3282   1.399       .  A
C3277      H3284   1.084       .  S
C3278      C3279   1.406       .  A
C3279      C3280   1.405       .  A
C3279      F3286   1.357       .  S
C3280      C3281   1.407       .  A
C3280      H3285   1.083       .  S
C3281      C3282   1.412       .  A
C3282      F3283   1.358       .  S
C3287      C3288   1.406       .  A
C3287      C3292   1.395       .  A
C3287      H3294   1.083       .  S
C3288      C3289   1.410       .  A
C3289      C3290   1.393       .  A
C3289      F3296   1.357       .  S
C3290      C3291   1.397       .  A
C3290      H3295   1.084       .  S
C3291      C3292   1.400       .  A
C3292      F3293   1.358       .  S
