geometry optimzed in LAMMPS
_audit_creation_date              2020-11-30 
_audit_creation_method            'lammps2cif' 
_symmetry_space_group_name_H-M    'P1' 
_symmetry_Int_Tables_number       1 
_symmetry_cell_setting            triclinic 
loop_ 
_symmetry_equiv_pos_as_xyz 
  x,y,z 
_cell_length_a                    28.8305094 
_cell_length_b                    27.91592267407609 
_cell_length_c                    27.045156616387313 
_cell_angle_alpha                 87.7649249331481 
_cell_angle_beta                  90.72940585639509 
_cell_angle_gamma                 92.1948905084746 
loop_ 
_atom_site_label 
_atom_site_type_symbol 
_atom_site_fract_x 
_atom_site_fract_y 
_atom_site_fract_z 
_atom_site_charge 
O1          O  0.31536405  0.65947877  0.73667041    -0.80100
O2          O  0.32219848  0.81144724  0.75005516    -0.80100
O3          O  0.26512769  0.70915831  0.64151483    -0.80100
O4          O  0.28471743  0.76689999  0.85071828    -0.80000
O5          O  0.32104799  0.75037968  0.67763542    -0.80200
O6          O  0.33375343  0.72539156  0.80872329    -0.80100
O7          O  0.26884731  0.84109460  0.79388648    -0.80100
O8          O  0.25216402  0.63251244  0.70151508    -0.80100
C9          C  0.29467474  0.62765543  0.71201064     1.09600
C10         C  0.31077715  0.84151520  0.78030332     1.09500
C11         C  0.30821074  0.71846589  0.64865121     1.09600
C12         C  0.32594971  0.75184059  0.84427750     1.09500
O13         O  0.25004665  0.69060603  0.85651604    -0.80100
O14         O  0.23356244  0.78685209  0.64042058    -0.80200
O15         O  0.17207248  0.67445811  0.74406826    -0.80100
O16         O  0.17675424  0.80542161  0.76256326    -0.80100
O17         O  0.23052017  0.84247920  0.71684127    -0.80100
O18         O  0.22615641  0.63483832  0.78416134    -0.80100
O19         O  0.18778005  0.72659055  0.83344495    -0.80000
O20         O  0.17868506  0.74749515  0.67941209    -0.80100
Co21       Co  0.28049900  0.68266593  0.79177699     1.51500
Co22       Co  0.27642937  0.79332294  0.70012811     1.51700
Co23       Co  0.21814436  0.69483936  0.69571220     1.51600
Co24       Co  0.22897835  0.78059700  0.80534015     1.51500
O25         O  0.25108170  0.73786005  0.74829022    -1.42000
C26         C  0.20745002  0.69639576  0.86222093     1.09500
C27         C  0.19074530  0.77614208  0.64499914     1.09600
C28         C  0.18330156  0.64101009  0.77341400     1.09600
C29         C  0.18840290  0.83834956  0.73057928     1.09500
O30         O  0.76413058  0.31661695  0.68648805    -0.80100
O31         O  0.74323602  0.31093033  0.80843676    -0.80100
O32         O  0.64494152  0.24250604  0.70382279    -0.80100
O33         O  0.85095457  0.22562176  0.79673308    -0.80000
O34         O  0.68306256  0.29945694  0.73761012    -0.80200
O35         O  0.83341112  0.29444077  0.76460893    -0.80100
O36         O  0.78361740  0.25729956  0.85199288    -0.80100
O37         O  0.71706257  0.26559645  0.64625269    -0.80100
C38         C  0.73271976  0.30867633  0.65324299     1.09600
C39         C  0.77338764  0.30103066  0.84099828     1.09500
C40         C  0.64828225  0.28634673  0.71402195     1.09600
C41         C  0.85964584  0.27004722  0.79331248     1.09500
O42         O  0.83796777  0.19937762  0.71704385    -0.80100
O43         O  0.65160612  0.20246549  0.78394181    -0.80200
O44         O  0.75326483  0.16744421  0.66257468    -0.80100
O45         O  0.73122293  0.16486918  0.83981740    -0.80100
O46         O  0.70528448  0.23211546  0.85999407    -0.80100
O47         O  0.79004434  0.23349539  0.64152408    -0.80100
O48         O  0.79723678  0.14592861  0.76459715    -0.80000
O49         O  0.68622910  0.15210016  0.73583458    -0.80100
Co50       Co  0.80225127  0.26058999  0.70745350     1.51500
Co51       Co  0.69897403  0.25998427  0.79297839     1.51700
Co52       Co  0.70454337  0.20692045  0.69223133     1.51600
Co53       Co  0.78635879  0.19910492  0.80835715     1.51500
O54         O  0.74831701  0.23086045  0.75017751    -1.42000
C55         C  0.82725244  0.15549524  0.73106922     1.09500
C56         C  0.65748329  0.15951378  0.76931672     1.09600
C57         C  0.78110236  0.19004725  0.63356649     1.09600
C58         C  0.70935152  0.18864268  0.87009182     1.09500
O59         O  0.67569210  0.76689460  0.14704670    -0.80100
O60         O  0.84190572  0.74798152  0.15962911    -0.80100
O61         O  0.72703768  0.86095467  0.17935598    -0.80100
O62         O  0.78820650  0.66427323  0.20357175    -0.80000
O63         O  0.77404852  0.82077443  0.13204641    -0.80200
O64         O  0.74952233  0.69664118  0.13961872    -0.80100
O65         O  0.85870371  0.71959569  0.23209176    -0.80100
O66         O  0.65692980  0.80459736  0.21190368    -0.80100
C67         C  0.64619456  0.79034613  0.16958849     1.09600
C68         C  0.86727164  0.72099956  0.18635710     1.09500
C69         C  0.74210262  0.85157760  0.13595437     1.09600
C70         C  0.77921588  0.66710505  0.15690721     1.09500
O71         O  0.71096860  0.65245701  0.22734139    -0.80100
O72         O  0.80277493  0.86978440  0.21607052    -0.80200
O73         O  0.69849942  0.77515651  0.30107499    -0.80100
O74         O  0.80662883  0.75408567  0.31251572    -0.80100
O75         O  0.85193160  0.79830081  0.26036433    -0.80100
O76         O  0.66101922  0.72671762  0.24850277    -0.80100
O77         O  0.73844391  0.67849304  0.29594808    -0.80000
O78         O  0.76886674  0.84870245  0.28378696    -0.80100
Co79       Co  0.70490403  0.71633184  0.19104428     1.51500
Co80       Co  0.81344607  0.80416622  0.19268803     1.51700
Co81       Co  0.71745024  0.81799760  0.24374633     1.51600
Co82       Co  0.79373107  0.70923786  0.25940780     1.51500
O83         O  0.75711369  0.76215181  0.22068517    -1.42000
C84         C  0.71255996  0.64801736  0.27372635     1.09500
C85         C  0.79639032  0.87761008  0.26072773     1.09600
C86         C  0.66844188  0.74136786  0.29275411     1.09600
C87         C  0.83994201  0.78462051  0.30536544     1.09500
C88         C  0.54081779  0.99598881  0.04116649     0.02300
C89         C  0.49855619  0.96352039  0.04214046     0.02300
C90         C  0.46619626  0.96440014  0.99944486     0.02300
C91         C  0.47032101  0.00061620  0.95835674     0.02300
C92         C  0.50593854  0.03970968  0.96130142     0.02300
C93         C  0.53795860  0.03841683  0.00633966     0.02300
N94         N  0.58458987  0.98813462  0.07440929    -0.03400
C95         C  0.60928903  0.94550167  0.07334201    -0.00800
C96         C  0.61765259  0.92721077  0.12075253    -0.23700
C97         C  0.60329335  0.95808913  0.15271607    -0.23900
C98         C  0.58725774  0.99723997  0.12564015    -0.00900
H99         H  0.63843960  0.89715346  0.13183291     0.12900
H100        H  0.61175488  0.95594785  0.19197133     0.12900
N101        N  0.55927159  0.08290491  0.02505294    -0.03400
C102        C  0.54066357  0.10114332  0.06619982    -0.00800
C103        C  0.50691949  0.13230335  0.04968422    -0.23700
C104        C  0.52792588  0.15391420  0.00944916    -0.23900
C105        C  0.56294513  0.12363948  0.99665133    -0.00900
H106        H  0.48299755  0.15086680  0.07196912     0.12900
H107        H  0.52115659  0.18975955  0.99533868     0.12900
N108        N  0.43804020  0.99616120  0.91435267    -0.03400
C109        C  0.43213831  0.03319404  0.88024508    -0.00800
C110        C  0.46505705  0.02940195  0.84463286    -0.23700
C111        C  0.47927521  0.98352628  0.84802121    -0.23900
C112        C  0.44883597  0.96205705  0.88214890    -0.00900
H113        H  0.46566112  0.05069759  0.81078591     0.12900
H114        H  0.49441943  0.96723815  0.81675559     0.12900
N115        N  0.50948539  0.07862869  0.91933330    -0.03400
C116        C  0.48873112  0.12363196  0.91942963    -0.00800
C117        C  0.52115209  0.15933785  0.90481882    -0.23700
C118        C  0.55730561  0.13769706  0.88577174    -0.23900
C119        C  0.54959215  0.08856193  0.89180352    -0.00900
H120        H  0.51507066  0.19724967  0.89862367     0.12900
H121        H  0.58480973  0.15660019  0.86543253     0.12900
N122        N  0.48314408  0.93400687  0.08722863    -0.03400
C123        C  0.51285584  0.92182312  0.12458722    -0.00800
C124        C  0.50696007  0.95197590  0.16383923    -0.23700
C125        C  0.47020984  0.97894527  0.15202452    -0.23900
C126        C  0.44893218  0.95174094  0.11603307    -0.00900
H127        H  0.52425528  0.95153565  0.19956078     0.12900
H128        H  0.45370566  0.99951996  0.17947837     0.12900
N129        N  0.42580410  0.92292361  0.99764289    -0.03400
C130        C  0.38714716  0.92923808  0.03496269    -0.00800
C131        C  0.39322162  0.91408110  0.99350683    -0.23700
C132        C  0.42710144  0.88138326  0.00246186    -0.23900
C133        C  0.43033011  0.88802836  0.95602329    -0.00900
H134        H  0.35700123  0.91241210  0.97485884     0.12900
H135        H  0.42649705  0.84357032  0.01591658     0.12900
C136        C  0.03783785  0.47488415  0.96741445     0.02300
C137        C  0.00156531  0.43657790  0.97071985     0.02300
C138        C  0.95823971  0.44798518  0.99728692     0.02300
C139        C  0.95927570  0.48425392  0.03836405     0.02300
C140        C  0.00243339  0.51520648  0.04367346     0.02300
C141        C  0.04109513  0.51116179  0.00772913     0.02300
N142        N  0.08478195  0.54223133  0.01418498    -0.03400
C143        C  0.11709523  0.54054571  0.97827340    -0.00800
C144        C  0.14570573  0.50242526  0.99092488    -0.23700
C145        C  0.14051615  0.49398803  0.04034294    -0.23900
C146        C  0.11396647  0.53160349  0.05364565    -0.00900
H147        H  0.17636670  0.49150390  0.97276271     0.12900
H148        H  0.16671193  0.47608114  0.06231434     0.12900
N149        N  0.06633951  0.48081332  0.91997892    -0.03400
C150        C  0.05317235  0.51848494  0.88939592    -0.00800
C151        C  0.01476880  0.50292624  0.86229122    -0.23700
C152        C  0.02291070  0.45588955  0.85637622    -0.23900
C153        C  0.06295808  0.44683373  0.88408396    -0.00900
H154        H  0.99545754  0.52349412  0.83488854     0.12900
H155        H  0.00947700  0.43758081  0.82464791     0.12900
N156        N  0.00809404  0.55045703  0.08531060    -0.03400
C157        C  0.97133061  0.55918652  0.11544063    -0.00800
C158        C  0.97322454  0.52524075  0.15403390    -0.23700
C159        C  0.01570710  0.50606665  0.15411138    -0.23900
C160        C  0.03916261  0.53775595  0.12224377    -0.00900
H161        H  0.95405942  0.52560331  0.18722938     0.12900
H162        H  0.02957110  0.48847291  0.18701583     0.12900
N163        N  0.91889339  0.48904161  0.07488916    -0.03400
C164        C  0.87888807  0.51588425  0.06504211    -0.00800
C165        C  0.83963911  0.48793670  0.07718285    -0.23700
C166        C  0.85369393  0.45075614  0.10549916    -0.23900
C167        C  0.90170139  0.45154724  0.10617689    -0.00900
H168        H  0.80368337  0.49837052  0.07513374     0.12900
H169        H  0.82948370  0.42679886  0.12463358     0.12900
N170        N  0.00845897  0.38882746  0.94485086    -0.03400
C171        C  0.97786000  0.35066246  0.95322590    -0.00800
C172        C  0.99651177  0.32260362  0.99193298    -0.23700
C173        C  0.04191308  0.33618301  0.99647147    -0.23900
C174        C  0.04943732  0.36422475  0.95406891    -0.00900
H175        H  0.98346111  0.28968865  0.00951465     0.12900
H176        H  0.06614913  0.31327173  0.01577277     0.12900
N177        N  0.91348299  0.42799008  0.97642224    -0.03400
C178        C  0.87274971  0.43380286  0.99945240    -0.00800
C179        C  0.85043219  0.47216113  0.97558884    -0.23700
C180        C  0.87438989  0.48308373  0.93342873    -0.23900
C181        C  0.89899617  0.44199644  0.92920815    -0.00900
H182        H  0.81654881  0.48558097  0.98254599     0.12900
H183        H  0.85979242  0.50503279  0.90383168     0.12900
C184        C  0.50456585  0.46599626  0.54466668     0.02300
C185        C  0.46192830  0.49585388  0.54086047     0.02300
C186        C  0.46872618  0.54296866  0.51221630     0.02300
C187        C  0.50764277  0.55093355  0.47293075     0.02300
C188        C  0.53737095  0.50929685  0.46599468     0.02300
C189        C  0.54132269  0.47205585  0.50680582     0.02300
N190        N  0.51490193  0.43252691  0.58804014    -0.03400
C191        C  0.55045847  0.44512659  0.62010207    -0.00800
C192        C  0.53293143  0.47517029  0.65408058    -0.23700
C193        C  0.49109924  0.45319575  0.66217420    -0.23900
C194        C  0.48369778  0.42137621  0.62403975    -0.00900
H195        H  0.55089179  0.49454327  0.68269250     0.12900
H196        H  0.47332499  0.45340047  0.69709455     0.12900
N197        N  0.43957569  0.58169441  0.53075176    -0.03400
C198        C  0.43645337  0.62587821  0.50819722    -0.00800
C199        C  0.46623969  0.65705465  0.53481921    -0.23700
C200        C  0.48423552  0.63085199  0.57326829    -0.23900
C201        C  0.44890327  0.59666677  0.57808244    -0.00900
H202        H  0.47232934  0.69529551  0.53202434     0.12900
H203        H  0.50500454  0.64703414  0.60200149     0.12900
N204        N  0.56266521  0.50339832  0.41772493    -0.03400
C205        C  0.56275660  0.53754941  0.37979900    -0.00800
C206        C  0.52377337  0.52670701  0.35018583    -0.23700
C207        C  0.51106408  0.48034098  0.36087763    -0.23900
C208        C  0.54776416  0.46531289  0.38992581    -0.00900
H209        H  0.51319982  0.54399528  0.31561430     0.12900
H210        H  0.48987579  0.45999328  0.33546456     0.12900
N211        N  0.51902505  0.59697399  0.43963103    -0.03400
C212        C  0.49133055  0.63558789  0.43088859    -0.00800
C213        C  0.51199864  0.67550087  0.45276646    -0.23700
C214        C  0.55239315  0.66177890  0.47360015    -0.23900
C215        C  0.56119229  0.62366986  0.44484056    -0.00900
H216        H  0.49973294  0.71165532  0.45287293     0.12900
H217        H  0.57701428  0.68785645  0.48856006     0.12900
N218        N  0.41502495  0.48284386  0.56837286    -0.03400
C219        C  0.40938398  0.49241972  0.61868637    -0.00800
C220        C  0.39504971  0.45207725  0.64602890    -0.23700
C221        C  0.38590667  0.41815877  0.61443093    -0.23900
C222        C  0.39171036  0.43719297  0.56671342    -0.00900
H223        H  0.38562255  0.44888870  0.68485917     0.12900
H224        H  0.36944812  0.38456461  0.62650720     0.12900
N225        N  0.58330862  0.44060374  0.51143145    -0.03400
C226        C  0.61808730  0.45206407  0.54523698    -0.00800
C227        C  0.64693689  0.48681976  0.52286565    -0.23700
C228        C  0.64672981  0.47242490  0.47557221    -0.23900
C229        C  0.61170528  0.43697752  0.47194905    -0.00900
H230        H  0.67759747  0.50401075  0.53869889     0.12900
H231        H  0.67779713  0.47586180  0.45351163     0.12900
C232        C  0.02661641  0.95903734  0.49775506     0.02300
C233        C  0.03129500  0.99590454  0.53619294     0.02300
C234        C  0.99208982  0.03036680  0.53734796     0.02300
C235        C  0.96334588  0.03981355  0.49193747     0.02300
C236        C  0.96306030  0.00565114  0.45048340     0.02300
C237        C  0.99100636  0.96088383  0.45567072     0.02300
N238        N  0.97708373  0.05297095  0.58408436    -0.03400
C239        C  0.00511900  0.05458652  0.62433783    -0.00800
C240        C  0.98934803  0.01904680  0.65879175    -0.23700
C241        C  0.94883628  0.00010020  0.64083200    -0.23900
C242        C  0.93657965  0.03568424  0.60687306    -0.00900
H243        H  0.00202478  0.01138215  0.69594848     0.12900
H244        H  0.92559090  0.97822021  0.66427683     0.12900
N245        N  0.07320462  0.99451307  0.57379841    -0.03400
C246        C  0.10474889  0.03351869  0.58224185    -0.00800
C247        C  0.10839751  0.04144914  0.63224552    -0.23700
C248        C  0.08391651  0.00682836  0.65676128    -0.23900
C249        C  0.06919980  0.97367759  0.62225963    -0.00900
H250        H  0.12978149  0.06802541  0.65055934     0.12900
H251        H  0.08611992  0.00151928  0.69680157     0.12900
N252        N  0.05594791  0.91680327  0.50612703    -0.03400
C253        C  0.04687183  0.88904342  0.54762945    -0.00800
C254        C  0.00896760  0.85932491  0.53522037    -0.23700
C255        C  0.01829309  0.84971541  0.48740248    -0.23900
C256        C  0.05500389  0.88102077  0.47390401    -0.00900
H257        H  0.98943715  0.83420676  0.55898633     0.12900
H258        H  0.00930365  0.81575898  0.47211468     0.12900
N259        N  0.93471191  0.08485019  0.48743734    -0.03400
C260        C  0.94865635  0.12114220  0.45405055    -0.00800
C261        C  0.98212249  0.14968418  0.47585647    -0.23700
C262        C  0.96719555  0.14859884  0.52301197    -0.23900
C263        C  0.93082812  0.11484343  0.52625326    -0.00900
H264        H  0.00067961  0.18081566  0.46010594     0.12900
H265        H  0.97483139  0.17842034  0.54632928     0.12900
N266        N  0.93414954  0.01783273  0.40454744    -0.03400
C267        C  0.94248119  0.06085135  0.37951370    -0.00800
C268        C  0.98301686  0.05751002  0.35333619    -0.23700
C269        C  0.97396859  0.01405392  0.33437485    -0.23900
C270        C  0.93673652  0.99387191  0.36200211    -0.00900
H271        H  0.00316554  0.08564016  0.33408227     0.12900
H272        H  0.98580232  0.00450664  0.29839586     0.12900
N273        N  0.98750844  0.92063127  0.41730908    -0.03400
C274        C  0.01322963  0.92478675  0.37364645    -0.00800
C275        C  0.98528478  0.91465980  0.33294848    -0.23700
C276        C  0.94634771  0.89301382  0.35045124    -0.23900
C277        C  0.94752800  0.89384397  0.40167277    -0.00900
H278        H  0.99578141  0.91299061  0.29460315     0.12900
H279        H  0.92136001  0.87468736  0.32716879     0.12900
O280        O  0.25086369  0.18079381  0.64658489    -0.80100
O281        O  0.23370336  0.30317773  0.64431005    -0.80100
O282        O  0.14405204  0.19768627  0.73632119    -0.80100
O283        O  0.34913026  0.28606072  0.72303386    -0.80000
O284        O  0.16201985  0.23013464  0.66555125    -0.80200
O285        O  0.32664192  0.25080024  0.65640917    -0.80100
O286        O  0.28157194  0.34288830  0.69507048    -0.80100
O287        O  0.20858098  0.14009397  0.70358983    -0.80100
C288        C  0.22123508  0.14724410  0.65772067     1.09600
C289        C  0.26577805  0.33532134  0.65056012     1.09500
C290        C  0.13488086  0.20286263  0.69152966     1.09600
C291        C  0.35735116  0.27527328  0.67944653     1.09500
O292        O  0.34370307  0.20559599  0.75442359    -0.80100
O293        O  0.15261692  0.27542239  0.76419337    -0.80200
O294        O  0.25836122  0.16233935  0.80335541    -0.80100
O295        O  0.24113469  0.32180172  0.80059527    -0.80100
O296        O  0.20828796  0.34819467  0.73374441    -0.80100
O297        O  0.28432779  0.13446917  0.73678068    -0.80100
O298        O  0.31447829  0.24981544  0.81243585    -0.80000
O299        O  0.19161665  0.22966581  0.81841036    -0.80100
Co300      Co  0.29625209  0.19790490  0.69916770     1.51500
Co301      Co  0.19354985  0.28466766  0.70214507     1.51700
Co302      Co  0.20557693  0.18654945  0.76399323     1.51600
Co303      Co  0.29120299  0.29590664  0.75759574     1.51500
O304        O  0.24687330  0.24155212  0.73032190    -1.42000
C305        C  0.34367438  0.21870337  0.79931619     1.09500
C306        C  0.16039380  0.26012016  0.80921770     1.09600
C307        C  0.28170810  0.13167225  0.78346234     1.09600
C308        C  0.21303684  0.35065409  0.78015861     1.09500
O309        O  0.75827046  0.16018828  0.28948017    -0.89100
O310        O  0.76436160  0.36442123  0.20995808    -0.80100
O311        O  0.79737837  0.27122692  0.16216805    -0.80100
O312        O  0.81425943  0.25835240  0.31953115    -0.80000
O313        O  0.73485110  0.30813979  0.14022860    -0.80200
O314        O  0.76035688  0.21962242  0.36117547    -0.80100
O315        O  0.81499738  0.32124024  0.24998364    -0.80100
O316        O  0.80907726  0.19867779  0.23982226    -0.80100
C317        C  0.79910998  0.16526908  0.27151583     1.09600
C318        C  0.80701196  0.35390567  0.21954146     1.09500
C319        C  0.77605371  0.29925131  0.13193396     1.09600
C320        C  0.80314381  0.22991472  0.35441967     1.09500
O321        O  0.66895596  0.25664464  0.33444917    -0.80100
O322        O  0.65605095  0.26759881  0.19042028    -0.80200
O323        O  0.71910928  0.16033383  0.21359848    -0.80100
O324        O  0.73220711  0.36743096  0.29137031    -0.80100
O325        O  0.67297652  0.32922063  0.26158060    -0.80100
O326        O  0.66349947  0.18453208  0.26000987    -0.80100
O327        O  0.73084505  0.29752284  0.35948908    -0.80000
O328        O  0.70722493  0.22993635  0.14920463    -0.80100
Co329      Co  0.71248881  0.21031720  0.30601968     1.51500
Co330      Co  0.70757502  0.31413323  0.20538481     1.51700
Co331      Co  0.75867282  0.21897331  0.19622670     1.51600
Co332      Co  0.77158376  0.30773143  0.30071326     1.51500
O333        O  0.73691958  0.26211627  0.25195649    -1.42000
C334        C  0.68797633  0.28634863  0.36383913     1.09500
C335        C  0.66546486  0.23637559  0.15967497     1.09600
C336        C  0.67830910  0.15417803  0.23082491     1.09600
C337        C  0.68842442  0.36318349  0.28565769     1.09500
O338        O  0.31797614  0.68110837  0.27621743    -0.80100
O339        O  0.17946821  0.66142364  0.27591244    -0.80100
O340        O  0.28281659  0.73774883  0.37849485    -0.80100
O341        O  0.20389301  0.71786127  0.16500390    -0.80000
O342        O  0.25273180  0.67046202  0.35134379    -0.80200
O343        O  0.24865341  0.66631024  0.20358123    -0.80100
O344        O  0.14206491  0.71715683  0.23502461    -0.80100
O345        O  0.34324841  0.74724921  0.31051862    -0.80100
C346        C  0.34840404  0.70348824  0.30127184     1.09600
C347        C  0.14732951  0.67301536  0.24573815     1.09500
C348        C  0.28096871  0.69221202  0.38073090     1.09600
C349        C  0.21897318  0.67548247  0.16986107     1.09500
O350        O  0.27564833  0.76008047  0.16052552    -0.80100
O351        O  0.20609697  0.75487321  0.38024287    -0.80200
O352        O  0.29902967  0.83099146  0.26578038    -0.80100
O353        O  0.17261261  0.81231783  0.26360510    -0.80100
O354        O  0.14382725  0.75291016  0.31143204    -0.80100
O355        O  0.33700296  0.77559847  0.22930221    -0.80100
O356        O  0.23564200  0.81693328  0.18890410    -0.80000
O357        O  0.23301259  0.82091229  0.34324941    -0.80100
Co358      Co  0.29066713  0.72056731  0.22225799     1.51500
Co359      Co  0.19928138  0.71007424  0.32464051     1.51700
Co360      Co  0.28522103  0.78326065  0.31959780     1.51600
Co361      Co  0.19282706  0.76621061  0.21762187     1.51500
O362        O  0.24198330  0.74476110  0.27113534    -1.42000
C363        C  0.26337413  0.80321734  0.15727174     1.09500
C364        C  0.20882328  0.80025865  0.37738573     1.09600
C365        C  0.33043088  0.81966496  0.23659794     1.09600
C366        C  0.14378142  0.79693128  0.29549207     1.09500
C367        C  0.04686375  0.84525190  0.36773165    -0.26300
C368        C  0.05378686  0.89531664  0.36266377    -0.14300
C369        C  0.08931372  0.91314643  0.33078611     0.36300
C370        C  0.11797623  0.88083698  0.30781119    -0.25700
C371        C  0.11108867  0.83065417  0.31547810    -0.14900
C372        C  0.07377844  0.81324269  0.34417166     0.37400
N373        N  0.06152608  0.76304679  0.34777708    -0.89200
H374        H  0.01859580  0.83109871  0.38866316     0.18500
H375        H  0.14574991  0.89510321  0.28430285     0.18500
N376        N  0.09545903  0.96372417  0.32098017    -0.88200
H377        H  0.02839279  0.75813849  0.33239386     0.35900
H378        H  0.06036430  0.75215968  0.38513036     0.41000
H379        H  0.12942724  0.97390329  0.33110581     0.40600
H380        H  0.09171084  0.97034858  0.28285462     0.35500
C381        C  0.91507659  0.11617426  0.30810610    -0.26300
C382        C  0.90310706  0.08503163  0.34921549    -0.14300
C383        C  0.85450087  0.07610934  0.35775070     0.36300
C384        C  0.82192645  0.09825046  0.32707118    -0.25700
C385        C  0.83488613  0.13299207  0.29087193    -0.14900
C386        C  0.88195197  0.14048027  0.27986902     0.37400
N387        N  0.89676477  0.17412706  0.24136844    -0.89200
H388        H  0.95059250  0.12449023  0.29826106     0.18500
H389        H  0.78556126  0.09180500  0.33578127     0.18500
N390        N  0.83551918  0.05237670  0.40127483    -0.88200
H391        H  0.91603934  0.15595261  0.21606305     0.35900
H392        H  0.91859984  0.20030916  0.25708839     0.41000
H393        H  0.86010996  0.04021265  0.42661883     0.40600
H394        H  0.81093987  0.02593198  0.39143804     0.35500
C395        C  0.86491448  0.14221480  0.43848633    -0.26300
C396        C  0.91205618  0.15099207  0.42705630    -0.14300
C397        C  0.92297512  0.18967692  0.39320192     0.36300
C398        C  0.88713513  0.21685632  0.37206971    -0.25700
C399        C  0.84015122  0.20647249  0.38374221    -0.14900
C400        C  0.82950092  0.16980444  0.41885818     0.37400
N401        N  0.78257182  0.15880778  0.43354904    -0.89200
H402        H  0.85437700  0.11209365  0.46193779     0.18500
H403        H  0.89620696  0.24499541  0.34479031     0.18500
N404        N  0.96980030  0.20003776  0.37796187    -0.88200
H405        H  0.78081345  0.16172821  0.47189547     0.35900
H406        H  0.77410882  0.12323260  0.42532857     0.41000
H407        H  0.97851821  0.23547099  0.38657029     0.40600
H408        H  0.97120930  0.19790361  0.33953739     0.35500
C409        C  0.14949725  0.79567548  0.44177342    -0.26300
C410        C  0.17850392  0.82529154  0.41132469    -0.14300
C411        C  0.17282214  0.87529148  0.41070040     0.36300
C412        C  0.13330458  0.89296133  0.43344716    -0.25700
C413        C  0.10005599  0.86169135  0.45696794    -0.14900
C414        C  0.11085015  0.81281137  0.46423929     0.37400
N415        N  0.08329932  0.77982260  0.49457797    -0.89200
H416        H  0.15502602  0.75758906  0.44652775     0.18500
H417        H  0.12727870  0.93106151  0.43101224     0.18500
N418        N  0.20643192  0.90777906  0.38729286    -0.88200
H419        H  0.07079363  0.75196691  0.47275579     0.35900
H420        H  0.10482826  0.76485593  0.52195141     0.41000
H421        H  0.20465762  0.90328952  0.34919406     0.40600
H422        H  0.19798362  0.94328011  0.39263810     0.35500
C423        C  0.19126517  0.03752537  0.57762290    -0.26300
C424        C  0.14892374  0.05204770  0.55489330    -0.14300
C425        C  0.15217356  0.10227904  0.54382167     0.36300
C426        C  0.17595000  0.13368059  0.57697693    -0.25700
C427        C  0.20247846  0.11520315  0.61707110    -0.14900
C428        C  0.21428082  0.06652783  0.61347530     0.37400
N429        N  0.24960010  0.04626791  0.64449367    -0.89200
H430        H  0.20343242  0.00211188  0.57170235     0.18500
H431        H  0.17465980  0.17211049  0.57061419     0.18500
N432        N  0.13569262  0.12131407  0.49711119    -0.88200
H433        H  0.23979511  0.04897636  0.68132864     0.35900
H434        H  0.28032995  0.06680238  0.63908138     0.41000
H435        H  0.12137522  0.09351003  0.47625691     0.40600
H436        H  0.16445345  0.13561102  0.47765990     0.35500
C437        C  0.03922944  0.10662489  0.68981244    -0.26300
C438        C  0.03389211  0.09850424  0.63908830    -0.14300
C439        C  0.05642148  0.13201552  0.60532808     0.36300
C440        C  0.08579560  0.16930747  0.62291685    -0.25700
C441        C  0.09492702  0.17302886  0.67323015    -0.14900
C442        C  0.06830056  0.14341819  0.70698584     0.37400
N443        N  0.07054389  0.15008709  0.75930635    -0.89200
H444        H  0.02020287  0.08486202  0.71715020     0.18500
H445        H  0.10318920  0.19426686  0.59705670     0.18500
N446        N  0.05006052  0.12872569  0.55330560    -0.88200
H447        H  0.08124258  0.11823612  0.77679570     0.35900
H448        H  0.03716309  0.15661530  0.77145935     0.41000
H449        H  0.06018864  0.09629167  0.54069404     0.40600
H450        H  0.06741824  0.15691314  0.53381234     0.35500
C451        C  0.61494197  0.31776819  0.40333089    -0.26300
C452        C  0.66333988  0.31211801  0.40278000    -0.14300
C453        C  0.69093125  0.33810780  0.43688451     0.36300
C454        C  0.67324500  0.37802748  0.45800769    -0.25700
C455        C  0.62620700  0.38924275  0.45296914    -0.14900
C456        C  0.59581457  0.35404035  0.43178398     0.37400
N457        N  0.54720497  0.35207315  0.44327416    -0.89200
H458        H  0.59237052  0.29470534  0.38156110     0.18500
H459        H  0.69666675  0.39972547  0.48020242     0.18500
N460        N  0.73767698  0.32483849  0.44875119    -0.88200
H461        H  0.52996470  0.32410546  0.42508750     0.35900
H462        H  0.53214133  0.38397804  0.43210246     0.41000
H463        H  0.73571429  0.29062671  0.46594574     0.40600
H464        H  0.75316312  0.34769645  0.47442210     0.35500
C465        C  0.30446724  0.44085558  0.56014563    -0.26300
C466        C  0.34542199  0.42228654  0.54082673    -0.14300
C467        C  0.33877246  0.37181002  0.53476062     0.36300
C468        C  0.30946925  0.34338856  0.56793543    -0.25700
C469        C  0.28487977  0.36483962  0.60573845    -0.14900
C470        C  0.27884256  0.41485126  0.59798336     0.37400
N471        N  0.24588655  0.43927395  0.62588516    -0.89200
H472        H  0.29287645  0.47501922  0.54599638     0.18500
H473        H  0.30670259  0.30499587  0.56524954     0.18500
N474        N  0.36331243  0.34892041  0.49722296    -0.88200
H475        H  0.25533741  0.43605904  0.66327147     0.35900
H476        H  0.21338516  0.42199161  0.62134161     0.41000
H477        H  0.39863519  0.35767067  0.50120197     0.40600
H478        H  0.35267259  0.36372953  0.46303506     0.35500
C479        C  0.46219952  0.69162345  0.36519501    -0.26300
C480        C  0.45791673  0.64527193  0.38818120    -0.14300
C481        C  0.42368623  0.61301406  0.36827746     0.36300
C482        C  0.38930445  0.63154959  0.33594243    -0.25700
C483        C  0.39003343  0.68049367  0.32145834    -0.14900
C484        C  0.42977803  0.70904927  0.33213675     0.37400
N485        N  0.43872589  0.75602356  0.30994393    -0.89200
H486        H  0.49190853  0.71539021  0.37207145     0.18500
H487        H  0.36025978  0.60832942  0.32512916     0.18500
N488        N  0.42008341  0.56289946  0.38201386    -0.88200
H489        H  0.41730925  0.78074795  0.32518233     0.35900
H490        H  0.43306350  0.75488781  0.27173202     0.41000
H491        H  0.44673304  0.55321841  0.40589731     0.40600
H492        H  0.42402074  0.54382788  0.34993274     0.35500
C493        C  0.63060311  0.45424499  0.36199741    -0.26300
C494        C  0.58327705  0.43897131  0.36025575    -0.14300
C495        C  0.57112130  0.40189400  0.32744869     0.36300
C496        C  0.60631143  0.38029619  0.30174377    -0.25700
C497        C  0.65382850  0.39331468  0.30823680    -0.14900
C498        C  0.66559631  0.43197331  0.33776949     0.37400
N499        N  0.71252519  0.44937286  0.34467894    -0.89200
H500        H  0.64169035  0.48327044  0.38385182     0.18500
H501        H  0.59622137  0.35138834  0.27782028     0.18500
N502        N  0.52365809  0.38576194  0.31989853    -0.88200
H503        H  0.73158723  0.42211584  0.36172273     0.35900
H504        H  0.72659111  0.45872938  0.31003617     0.41000
H505        H  0.51108629  0.37007705  0.35286566     0.40600
H506        H  0.52108361  0.35919308  0.29370050     0.35500
C507        C  0.34605501  0.70312652  0.43983708    -0.26300
C508        C  0.31549645  0.66980965  0.41699708    -0.14300
C509        C  0.32273213  0.62034405  0.42843537     0.36300
C510        C  0.36178394  0.60714914  0.45824041    -0.25700
C511        C  0.39441957  0.64147823  0.47709204    -0.14900
C512        C  0.38436299  0.69028726  0.46837256     0.37400
N513        N  0.41238385  0.72843490  0.48815830    -0.89200
H514        H  0.34171069  0.74135556  0.43474037     0.18500
H515        H  0.36710487  0.56938044  0.46602695     0.18500
N516        N  0.29270623  0.58250284  0.41037625    -0.88200
H517        H  0.39168251  0.74821768  0.51070715     0.35900
H518        H  0.42430332  0.75097815  0.45884116     0.41000
H519        H  0.26412438  0.59593799  0.39141135     0.40600
H520        H  0.27928743  0.56310729  0.44116586     0.35500
C521        C  0.44785790  0.34027916  0.59846435    -0.26300
C522        C  0.46589985  0.37024028  0.63580513    -0.14300
C523        C  0.46444897  0.35126159  0.68498711     0.36300
C524        C  0.43372767  0.31315046  0.69676430    -0.25700
C525        C  0.40369592  0.29357309  0.66077734    -0.14900
C526        C  0.41678345  0.30088965  0.61091164     0.37400
N527        N  0.40315550  0.26637096  0.57501150    -0.89200
H528        H  0.45554710  0.34950853  0.56018278     0.18500
H529        H  0.43030069  0.30215301  0.73549178     0.18500
N530        N  0.49381683  0.37022218  0.72326015    -0.88200
H531        H  0.41623206  0.27695615  0.54025531     0.35900
H532        H  0.36723500  0.26389562  0.57192131     0.41000
H533        H  0.51415482  0.34260954  0.73757807     0.40600
H534        H  0.47278890  0.38097464  0.75171056     0.35500
C535        C  0.79756414  0.39369217  0.02966853    -0.26300
C536        C  0.84605718  0.39264328  0.02585665    -0.14300
C537        C  0.86787484  0.35241546  0.04783999     0.36300
C538        C  0.84319697  0.31883222  0.07781504    -0.25700
C539        C  0.79745147  0.32580836  0.08923490    -0.14900
C540        C  0.77326462  0.36146696  0.06154218     0.37400
N541        N  0.72421937  0.36626350  0.06628570    -0.89200
H542        H  0.77815529  0.42105303  0.01028984     0.18500
H543        H  0.86057556  0.28796903  0.09336357     0.18500
N544        N  0.91398198  0.34239708  0.03610943    -0.88200
H545        H  0.70881509  0.36274191  0.03133956     0.35900
H546        H  0.71846467  0.40077760  0.07800904     0.41000
H547        H  0.91139597  0.30898071  0.02002373     0.40600
H548        H  0.93326514  0.33739256  0.06837138     0.35500
C549        C  0.11588209  0.30823407  0.93206619    -0.26300
C550        C  0.07590559  0.33387750  0.91577949    -0.14300
C551        C  0.06372802  0.32725550  0.86486914     0.36300
C552        C  0.09040537  0.30045658  0.83390409    -0.25700
C553        C  0.13088532  0.27899090  0.84928139    -0.14900
C554        C  0.14253116  0.28046465  0.90007932     0.37400
N555        N  0.18151417  0.25469163  0.91917517    -0.89200
H556        H  0.12813256  0.31138445  0.96976326     0.18500
H557        H  0.07939737  0.29820431  0.79552012     0.18500
N558        N  0.02571144  0.34880035  0.84100042    -0.88200
H559        H  0.18570090  0.25948761  0.95712996     0.35900
H560        H  0.21154541  0.26914406  0.90221625     0.41000
H561        H  0.03787606  0.36859232  0.81001624     0.40600
H562        H  0.00594628  0.32055807  0.82599483     0.35500
C563        C  0.92274008  0.37834984  0.15280798    -0.26300
C564        C  0.92398860  0.42848015  0.15237938    -0.14300
C565        C  0.90728488  0.44251604  0.19922987     0.36300
C566        C  0.86322325  0.42376794  0.21373790    -0.25700
C567        C  0.84934531  0.37814817  0.19818156    -0.14900
C568        C  0.88522700  0.35207955  0.17623409     0.37400
N569        N  0.88634196  0.30079176  0.18208308    -0.89200
H570        H  0.95241461  0.36057514  0.13941629     0.18500
H571        H  0.84565954  0.43864866  0.24449233     0.18500
N572        N  0.93908516  0.44935991  0.23984581    -0.88200
H573        H  0.91496140  0.28824993  0.16381063     0.35900
H574        H  0.89170962  0.29230039  0.21964099     0.41000
H575        H  0.97323774  0.44534342  0.22887949     0.40600
H576        H  0.93552054  0.48350326  0.25342963     0.35500
C577        C  0.08993380  0.65514793  0.17963475    -0.26300
C578        C  0.11760300  0.63731669  0.21859319    -0.14300
C579        C  0.11858780  0.58725389  0.22666851     0.36300
C580        C  0.09535600  0.55694654  0.19288857    -0.25700
C581        C  0.06805997  0.57459438  0.15225799    -0.14900
C582        C  0.06604807  0.62568780  0.14655799     0.37400
N583        N  0.04460509  0.65094677  0.10580417    -0.89200
H584        H  0.08850827  0.69353423  0.17243513     0.18500
H585        H  0.09928041  0.51873156  0.19833169     0.18500
N586        N  0.14120318  0.56701653  0.26990052    -0.88200
H587        H  0.01998801  0.67388949  0.11847024     0.35900
H588        H  0.03170190  0.62986365  0.07775562     0.41000
H589        H  0.17683978  0.57373934  0.26681020     0.40600
H590        H  0.13621763  0.52970362  0.27175780     0.35500
C591        C  0.14326091  0.40721775  0.88440706    -0.26300
C592        C  0.10531311  0.42698049  0.85762123    -0.14300
C593        C  0.10993485  0.42945061  0.80498285     0.36300
C594        C  0.14552172  0.40556349  0.78167049    -0.25700
C595        C  0.18045285  0.38155363  0.80834829    -0.14900
C596        C  0.18106715  0.38630659  0.86035562     0.37400
N597        N  0.22077290  0.37216673  0.88881078    -0.89200
H598        H  0.14405107  0.40905108  0.92434670     0.18500
H599        H  0.14547563  0.40597143  0.74160152     0.18500
N600        N  0.07955455  0.45745458  0.77426611    -0.88200
H601        H  0.20951117  0.35012197  0.91863493     0.35900
H602        H  0.23583942  0.40309187  0.90380615     0.41000
H603        H  0.06357166  0.43506887  0.74846726     0.40600
H604        H  0.09963488  0.48377792  0.75494819     0.35500
C605        C  0.17577525  0.55551929  0.11795968    -0.26300
C606        C  0.14310527  0.57040918  0.08108060    -0.14300
C607        C  0.14260320  0.62095862  0.07018268     0.36300
C608        C  0.16958281  0.65307763  0.09815782    -0.25700
C609        C  0.19897780  0.63795929  0.13666115    -0.14900
C610        C  0.20487904  0.58824918  0.14393372     0.37400
N611        N  0.24097887  0.57080064  0.17625830    -0.89200
H612        H  0.17831267  0.51783805  0.12783511     0.18500
H613        H  0.16644889  0.69110534  0.08971850     0.18500
N614        N  0.11623035  0.64160151  0.03036772    -0.88200
H615        H  0.24207392  0.53344871  0.17550881     0.35900
H616        H  0.23312308  0.57870381  0.21243923     0.41000
H617        H  0.14034655  0.66076576  0.00802993     0.40600
H618        H  0.09657723  0.66901202  0.04285749     0.35500
C619        C  0.28473160  0.88690372  0.12156560    -0.26300
C620        C  0.28466419  0.83643942  0.11852487    -0.14300
C621        C  0.31002537  0.81774999  0.08024159     0.36300
C622        C  0.34057733  0.84740197  0.05341898    -0.25700
C623        C  0.34717851  0.89738961  0.06017229    -0.14900
C624        C  0.31483490  0.91748302  0.09170453     0.37400
N625        N  0.31435011  0.96864873  0.09523743    -0.89200
H626        H  0.26345606  0.90238241  0.14904868     0.18500
H627        H  0.35910179  0.82846834  0.02753883     0.18500
N628        N  0.30643037  0.76831874  0.06723377    -0.88200
H629        H  0.28932009  0.97783337  0.12048349     0.35900
H630        H  0.30416119  0.98295943  0.06066458     0.41000
H631        H  0.27143181  0.75760128  0.06369035     0.40600
H632        H  0.32323438  0.74687853  0.09382531     0.35500
C633        C  0.38236425  0.93582042  0.17684449    -0.26300
C634        C  0.41362265  0.91728492  0.14266779    -0.14300
C635        C  0.41593994  0.86641077  0.14206998     0.36300
C636        C  0.39041194  0.83742593  0.17523697    -0.25700
C637        C  0.35971101  0.85565125  0.20845271    -0.14900
C638        C  0.35570807  0.90571800  0.20976317     0.37400
N639        N  0.32418323  0.92585441  0.24329651    -0.89200
H640        H  0.37868663  0.97421053  0.17784578     0.18500
H641        H  0.39392544  0.79906411  0.17294268     0.18500
N642        N  0.44232027  0.84209693  0.10714032    -0.88200
H643        H  0.32446363  0.96319872  0.23840634     0.35900
H644        H  0.33651247  0.91859718  0.27922766     0.41000
H645        H  0.41943088  0.81824661  0.08964989     0.40600
H646        H  0.46354308  0.81866650  0.12711373     0.35500
C647        C  0.44595711  0.14215192  0.84065744    -0.26300
C648        C  0.44447854  0.13891186  0.89269921    -0.14300
C649        C  0.41118177  0.16723583  0.91526977     0.36300
C650        C  0.37871368  0.19409109  0.88558212    -0.25700
C651        C  0.37983513  0.19510454  0.83319516    -0.14900
C652        C  0.41585942  0.16975357  0.81154653     0.37400
N653        N  0.42422685  0.17352613  0.75933696    -0.89200
H654        H  0.47475025  0.12736066  0.82214045     0.18500
H655        H  0.35248494  0.21387909  0.90342638     0.18500
N656        N  0.41127687  0.16957672  0.96820759    -0.88200
H657        H  0.42208756  0.13901285  0.74554948     0.35900
H658        H  0.45797153  0.18764641  0.75378283     0.41000
H659        H  0.40351568  0.13504086  0.98287961     0.40600
H660        H  0.38493777  0.19133446  0.97938947     0.35500
C661        C  0.35489270  0.07389316  0.88739624    -0.26300
C662        C  0.38509097  0.04784334  0.85915184    -0.14300
C663        C  0.37162146  0.03999426  0.80879754     0.36300
C664        C  0.33529709  0.06484537  0.78675576    -0.25700
C665        C  0.31023709  0.09696812  0.81289549    -0.14900
C666        C  0.31733136  0.09838848  0.86485876     0.37400
N667        N  0.28846436  0.12685067  0.89404255    -0.89200
H668        H  0.36227100  0.07743315  0.92645013     0.18500
H669        H  0.32824947  0.06040267  0.74769424     0.18500
N670        N  0.39488842  0.00730883  0.77885878    -0.88200
H671        H  0.29910807  0.12514016  0.93115148     0.35900
H672        H  0.25485585  0.11147495  0.89277872     0.41000
H673        H  0.37035169  0.98194098  0.76622428     0.40600
H674        H  0.40835072  0.02645060  0.74791421     0.35500
C675        C  0.55652973  0.16137321  0.13287439    -0.26300
C676        C  0.57416936  0.12821221  0.09991931    -0.14300
C677        C  0.62263365  0.13111879  0.08985903     0.36300
C678        C  0.64917927  0.16915375  0.10705333    -0.25700
C679        C  0.63109225  0.20348339  0.13715452    -0.14900
C680        C  0.58409428  0.20006710  0.14987380     0.37400
N681        N  0.56459007  0.23531853  0.17998850    -0.89200
H682        H  0.52042389  0.15846777  0.14337875     0.18500
H683        H  0.68533406  0.17130015  0.09653895     0.18500
N684        N  0.64510558  0.09856179  0.05855640    -0.88200
H685        H  0.52950303  0.22692211  0.18656115     0.35900
H686        H  0.56593311  0.26798401  0.15968578     0.41000
H687        H  0.63695622  0.06299113  0.06776765     0.40600
H688        H  0.68128473  0.10296627  0.05973159     0.35500
C689        C  0.58179906  0.06442608  0.18690572    -0.26300
C690        C  0.60805009  0.04003013  0.15227936    -0.14300
C691        C  0.65712457  0.04463940  0.15850745     0.36300
C692        C  0.67739560  0.07869348  0.18850608    -0.25700
C693        C  0.65136211  0.11057621  0.21390243    -0.14900
C694        C  0.60292205  0.10040046  0.21728157     0.37400
N695        N  0.57580306  0.12463832  0.25205948    -0.89200
H696        H  0.54484812  0.05631548  0.18931352     0.18500
H697        H  0.71501614  0.08089087  0.19010331     0.18500
N698        N  0.68747346  0.01318048  0.13588502    -0.88200
H699        H  0.54096445  0.11306506  0.24956612     0.35900
H700        H  0.57705444  0.16121143  0.24266289     0.41000
H701        H  0.71332297  0.03444983  0.11812259     0.40600
H702        H  0.70387954  0.99313789  0.16403652     0.35500
C703        C  0.82110389  0.92397799  0.33572137    -0.26300
C704        C  0.82474781  0.91665634  0.28494403    -0.14300
C705        C  0.85874314  0.94454320  0.25831414     0.36300
C706        C  0.89191961  0.97277464  0.28353861    -0.25700
C707        C  0.89339073  0.97353115  0.33566214    -0.14900
C708        C  0.85555479  0.95084352  0.36157900     0.37400
N709        N  0.85171174  0.95523776  0.41401411    -0.89200
H710        H  0.79246407  0.90678279  0.35585886     0.18500
H711        H  0.91783055  0.99237978  0.26153719     0.18500
N712        N  0.86066957  0.94374602  0.20543909    -0.88200
H713        H  0.88128412  0.94316570  0.43203591     0.35900
H714        H  0.82238410  0.93638523  0.42779938     0.41000
H715        H  0.89330917  0.93219940  0.19579980     0.40600
H716        H  0.85742120  0.97882301  0.19115430     0.35500
C717        C  0.72547139  0.92817821  0.08307442    -0.26300
C718        C  0.72058500  0.87779510  0.09059964    -0.14300
C719        C  0.68840874  0.85491677  0.05798858     0.36300
C720        C  0.65268551  0.88207947  0.03416108    -0.25700
C721        C  0.64938952  0.93203259  0.04087083    -0.14900
C722        C  0.69318323  0.95378396  0.05217322     0.37400
N723        N  0.70354443  0.00164245  0.03350416    -0.89200
H724        H  0.75407712  0.94738386  0.10075339     0.18500
H725        H  0.62445593  0.86330930  0.01550947     0.18500
N726        N  0.69080653  0.80490179  0.04844829    -0.88200
H727        H  0.73810109  0.01130618  0.04173004     0.35900
H728        H  0.70126539  0.00076993  0.99498617     0.41000
H729        H  0.72031832  0.79051669  0.06501501     0.40600
H730        H  0.69509599  0.80212158  0.01036487     0.35500
C731        C  0.95527684  0.62081616  0.17958332    -0.26300
C732        C  0.95434573  0.60896634  0.12914619    -0.14300
C733        C  0.93454477  0.64370784  0.09579423     0.36300
C734        C  0.90874360  0.68184335  0.11455336    -0.25700
C735        C  0.90292124  0.68757174  0.16600292    -0.14900
C736        C  0.93003848  0.65796629  0.19807956     0.37400
N737        N  0.93302738  0.66399313  0.25034760    -0.89200
H738        H  0.97500007  0.59985587  0.20632997     0.18500
H739        H  0.89106248  0.70548590  0.08849636     0.18500
N740        N  0.93775224  0.64027941  0.04308666    -0.88200
H741        H  0.90089522  0.65519187  0.26635360     0.35900
H742        H  0.94318445  0.69958888  0.25657354     0.41000
H743        H  0.95613992  0.61047444  0.03392637     0.40600
H744        H  0.95677437  0.67054650  0.02965403     0.35500
C745        C  0.84630005  0.82915648  0.38660614    -0.26300
C746        C  0.86670161  0.80196895  0.35021138    -0.14300
C747        C  0.91001909  0.78350472  0.36374562     0.36300
C748        C  0.93572873  0.80393523  0.40353005    -0.25700
C749        C  0.92292885  0.84798437  0.42402274    -0.14900
C750        C  0.87384931  0.84899728  0.42586950     0.37400
N751        N  0.85282279  0.85565160  0.47286506    -0.89200
H752        H  0.80897117  0.83185712  0.38654084     0.18500
H753        H  0.96584800  0.78573489  0.41672558     0.18500
N754        N  0.92610575  0.74245583  0.33966048    -0.88200
H755        H  0.81726702  0.86062976  0.46810509     0.35900
H756        H  0.86747037  0.88623547  0.48882127     0.41000
H757        H  0.90160706  0.71433008  0.34587081     0.40600
H758        H  0.95678949  0.73104670  0.35640235     0.35500
C759        C  0.68423844  0.60167447  0.35113616    -0.26300
C760        C  0.68034778  0.61117497  0.29991386    -0.14300
C761        C  0.64286278  0.58737648  0.27494456     0.36300
C762        C  0.60876894  0.56054921  0.30164097    -0.25700
C763        C  0.60762337  0.55803273  0.35398670    -0.14900
C764        C  0.64908219  0.57570822  0.37841039     0.37400
N765        N  0.65459822  0.57438481  0.43116876    -0.89200
H766        H  0.71332149  0.61768540  0.37113169     0.18500
H767        H  0.58143499  0.54355656  0.28010850     0.18500
N768        N  0.63659798  0.59102528  0.22231378    -0.88200
H769        H  0.68462841  0.55617926  0.44040950     0.35900
H770        H  0.62626023  0.55758919  0.44875691     0.41000
H771        H  0.66599722  0.57865831  0.20536271     0.40600
H772        H  0.63135940  0.62676874  0.21145231     0.35500
C773        C  0.82584652  0.59663429  0.15636616    -0.26300
C774        C  0.80473063  0.63200540  0.12738487    -0.14300
C775        C  0.81273985  0.63273799  0.07580432     0.36300
C776        C  0.84162289  0.59745943  0.05581992    -0.25700
C777        C  0.86510111  0.56313066  0.08656399    -0.14900
C778        C  0.85577448  0.56462055  0.13811259     0.37400
N779        N  0.87044868  0.52874547  0.17268903    -0.89200
H780        H  0.81892234  0.59225873  0.19562549     0.18500
H781        H  0.84478947  0.59576896  0.01607684     0.18500
N782        N  0.79226309  0.66876083  0.04417188    -0.88200
H783        H  0.84039463  0.51042376  0.18558422     0.35900
H784        H  0.88490208  0.54585311  0.20331345     0.41000
H785        H  0.75626475  0.66283327  0.04527661     0.40600
H786        H  0.80208525  0.66477475  0.00753073     0.35500
C787        C  0.55183231  0.84809000  0.09301427    -0.26300
C788        C  0.53336903  0.87310089  0.13234130    -0.14300
C789        C  0.53652297  0.85130062  0.18032735     0.36300
C790        C  0.56845758  0.81585543  0.18970878    -0.25700
C791        C  0.59795517  0.80175784  0.15242598    -0.14900
C792        C  0.58322587  0.81083271  0.10298846     0.37400
N793        N  0.59758372  0.78231288  0.06342155    -0.89200
H794        H  0.54428731  0.85936167  0.05508796     0.18500
H795        H  0.57372994  0.80337486  0.22778006     0.18500
N796        N  0.50757675  0.86480089  0.21975537    -0.88200
H797        H  0.56761414  0.76706182  0.04736813     0.35900
H798        H  0.61617890  0.75340816  0.07772394     0.41000
H799        H  0.52896457  0.87588402  0.24900723     0.40600
H800        H  0.48813196  0.83438957  0.23214095     0.35500
C801        C  0.59996050  0.69246196  0.31938976    -0.26300
C802        C  0.64104074  0.71612658  0.33338933    -0.14300
C803        C  0.65713152  0.70847978  0.38236775     0.36300
C804        C  0.63180660  0.67650904  0.41515908    -0.25700
C805        C  0.58977245  0.65091999  0.40143192    -0.14900
C806        C  0.57514797  0.66005020  0.35057340     0.37400
N807        N  0.53997498  0.63318176  0.32511954    -0.89200
H808        H  0.58755520  0.69713659  0.28152090     0.18500
H809        H  0.64532904  0.67098475  0.45240801     0.18500
N810        N  0.69937202  0.73222133  0.39873499    -0.88200
H811        H  0.51753949  0.65619691  0.30625319     0.35900
H812        H  0.52127425  0.61221315  0.34965996     0.41000
H813        H  0.72678021  0.71872035  0.37933415     0.40600
H814        H  0.70575803  0.72375189  0.43613254     0.35500
C815        C  0.90564455  0.26200163  0.87159078    -0.26300
C816        C  0.89464750  0.29076748  0.82938747    -0.14300
C817        C  0.91472158  0.33778158  0.82632184     0.36300
C818        C  0.93972082  0.35575013  0.86755795    -0.25700
C819        C  0.94975969  0.32776069  0.91085497    -0.14900
C820        C  0.93264683  0.27915330  0.91132502     0.37400
N821        N  0.94095538  0.24633375  0.95205468    -0.89200
H822        H  0.89176826  0.22541832  0.87510222     0.18500
H823        H  0.95215049  0.39264577  0.86525626     0.18500
N824        N  0.91100327  0.36855363  0.78266493    -0.88200
H825        H  0.95803452  0.21707927  0.93891813     0.35900
H826        H  0.90892927  0.23385469  0.96619048     0.41000
H827        H  0.89694348  0.35000699  0.75300398     0.40600
H828        H  0.94470806  0.37896081  0.77184211     0.35500
C829        C  0.89722330  0.13510773  0.69104423    -0.26300
C830        C  0.85436888  0.11797112  0.70797934    -0.14300
C831        C  0.83827327  0.07185242  0.69334389     0.36300
C832        C  0.86414914  0.04766338  0.65834402    -0.25700
C833        C  0.90540051  0.06816904  0.63649568    -0.14900
C834        C  0.91976925  0.11453697  0.65288020     0.37400
N835        N  0.95328792  0.14530837  0.62831444    -0.89200
H836        H  0.91142244  0.16930697  0.70324924     0.18500
H837        H  0.85177522  0.01232716  0.64779974     0.18500
N838        N  0.79640932  0.04844712  0.71192575    -0.88200
H839        H  0.97557631  0.15982856  0.65499683     0.35900
H840        H  0.93587084  0.17550071  0.61543522     0.41000
H841        H  0.78027251  0.06881105  0.73757942     0.40600
H842        H  0.80568859  0.01679338  0.73082419     0.35500
C843        C  0.63748990  0.10599957  0.95491803    -0.26300
C844        C  0.60819663  0.14010210  0.97402190    -0.14300
C845        C  0.62331589  0.18869006  0.97171676     0.36300
C846        C  0.66051454  0.20280532  0.94162790    -0.25700
C847        C  0.68418310  0.16935320  0.91456087    -0.14900
C848        C  0.67696842  0.12031307  0.92739218     0.37400
N849        N  0.70891955  0.08478339  0.91453120    -0.89200
H850        H  0.62938752  0.06805391  0.96120147     0.18500
H851        H  0.66895350  0.24090586  0.93736973     0.18500
N852        N  0.60134160  0.22400163  0.99939595    -0.88200
H853        H  0.71987632  0.06796689  0.94753501     0.35900
H854        H  0.73919857  0.10101670  0.90001154     0.41000
H855        H  0.62635243  0.23997365  0.02246128     0.40600
H856        H  0.58934587  0.25049609  0.97454042     0.35500
C857        C  0.80980633  0.38366085  0.83815398    -0.26300
C858        C  0.79933544  0.34013936  0.86467249    -0.14300
C859        C  0.82081735  0.33075223  0.91015308     0.36300
C860        C  0.85598075  0.36184080  0.92521099    -0.25700
C861        C  0.86719703  0.40629445  0.90121145    -0.14900
C862        C  0.84342239  0.41713171  0.85609411     0.37400
N863        N  0.85506823  0.46028500  0.82755919    -0.89200
H864        H  0.79362631  0.39039493  0.80231095     0.18500
H865        H  0.87663883  0.34960660  0.95532794     0.18500
N866        N  0.80861945  0.28827751  0.93987330    -0.88200
H867        H  0.83529746  0.46199485  0.79490433     0.35900
H868        H  0.88979333  0.45887636  0.81725101     0.41000
H869        H  0.77431405  0.29121284  0.95113426     0.40600
H870        H  0.82889250  0.28624224  0.97214956     0.35500
C871        C  0.61552719  0.05265258  0.85086953    -0.26300
C872        C  0.56760471  0.06116104  0.84902560    -0.14300
C873        C  0.55362028  0.07834402  0.80087150     0.36300
C874        C  0.58070391  0.11653418  0.77948994    -0.25700
C875        C  0.62837199  0.11844789  0.78978120    -0.14900
C876        C  0.64619768  0.07901313  0.81795320     0.37400
N877        N  0.69130932  0.06166448  0.80798095    -0.89200
H878        H  0.62903776  0.02814520  0.87901187     0.18500
H879        H  0.56708508  0.13816892  0.74891621     0.18500
N880        N  0.53529152  0.04409911  0.76687470    -0.88200
H881        H  0.69787335  0.03148686  0.83074005     0.35900
H882        H  0.71692735  0.08752872  0.81536340     0.41000
H883        H  0.56304655  0.02678711  0.75174913     0.40600
H884        H  0.51810979  0.06229282  0.73793003     0.35500
C885        C  0.56495976  0.35631981  0.63436608    -0.26300
C886        C  0.57681599  0.40428923  0.64615631    -0.14300
C887        C  0.60844332  0.41136412  0.68602451     0.36300
C888        C  0.62756984  0.37139600  0.71032143    -0.25700
C889        C  0.61744256  0.32416177  0.69549767    -0.14900
C890        C  0.58400976  0.31646173  0.65874036     0.37400
N891        N  0.57128465  0.26869043  0.64422471    -0.89200
H892        H  0.54170363  0.34926209  0.60397390     0.18500
H893        H  0.65262095  0.37766986  0.73977442     0.18500
N894        N  0.62208380  0.45865595  0.70140852    -0.88200
H895        H  0.54689780  0.26950415  0.61528431     0.35900
H896        H  0.55475141  0.25102622  0.67431740     0.41000
H897        H  0.63725899  0.47785179  0.67157270     0.40600
H898        H  0.64703496  0.45729199  0.72977321     0.35500
C899        C  0.68487540  0.42925754  0.60427325    -0.26300
C900        C  0.64778013  0.41359012  0.57259461    -0.14300
C901        C  0.64365134  0.36272849  0.56629640     0.36300
C902        C  0.67608204  0.33239542  0.58813459    -0.25700
C903        C  0.70965355  0.34759552  0.62269523    -0.14900
C904        C  0.71420742  0.39729961  0.63031827     0.37400
N905        N  0.74713543  0.41654996  0.66502439    -0.89200
H906        H  0.69008371  0.46699413  0.61107503     0.18500
H907        H  0.67125959  0.29457757  0.58110152     0.18500
N908        N  0.60455978  0.33788322  0.54421751    -0.88200
H909        H  0.78025509  0.40656743  0.65520496     0.35900
H910        H  0.73943072  0.40181168  0.70022265     0.41000
H911        H  0.57814171  0.35955931  0.53194637     0.40600
H912        H  0.61546618  0.31571387  0.51679767     0.35500
C913        C  0.83947769  0.20010316  0.56852207    -0.26300
C914        C  0.80819738  0.16866233  0.59372847    -0.14300
C915        C  0.80801235  0.11969173  0.58221844     0.36300
C916        C  0.84663867  0.10239137  0.55685874    -0.25700
C917        C  0.88456506  0.13351964  0.54304844    -0.14900
C918        C  0.87634132  0.18362977  0.54251825     0.37400
N919        N  0.90463317  0.21855158  0.51522209    -0.89200
H920        H  0.83690236  0.23861768  0.57047865     0.18500
H921        H  0.84836807  0.06447036  0.55033366     0.18500
N922        N  0.76850528  0.08855312  0.59379417    -0.88200
H923        H  0.91843231  0.24345140  0.53986058     0.35900
H924        H  0.88341287  0.23682100  0.48977736     0.41000
H925        H  0.76442421  0.08617210  0.63198147     0.40600
H926        H  0.77410476  0.05385811  0.58254616     0.35500
C927        C  0.43012086  0.81693186  0.89881831    -0.26300
C928        C  0.40330449  0.84511149  0.92940585    -0.14300
C929        C  0.35586279  0.82685690  0.93682072     0.36300
C930        C  0.34408872  0.78027248  0.92498242    -0.25700
C931        C  0.36230033  0.76484650  0.88176121    -0.14900
C932        C  0.40925387  0.77871743  0.87203802     0.37400
N933        N  0.43753025  0.75219387  0.84038041    -0.89200
H934        H  0.46656163  0.82636492  0.89349297     0.18500
H935        H  0.31002513  0.76613020  0.93618083     0.18500
N936        N  0.31628217  0.85559115  0.94341387    -0.88200
H937        H  0.45143205  0.77550453  0.81288705     0.35900
H938        H  0.41797293  0.72513938  0.82334346     0.41000
H939        H  0.29520363  0.85392884  0.91176385     0.40600
H940        H  0.29585319  0.84043389  0.97198686     0.35500
C941        C  0.13408594  0.66021198  0.90122002    -0.26300
C942        C  0.18273901  0.66397374  0.89944795    -0.14300
C943        C  0.20829535  0.63235080  0.93052613     0.36300
C944        C  0.18569621  0.59432876  0.95638610    -0.25700
C945        C  0.13737744  0.58576958  0.95283181    -0.14900
C946        C  0.11091639  0.62244217  0.92853155     0.37400
N947        N  0.06109621  0.62292887  0.93032748    -0.89200
H948        H  0.11375665  0.68566932  0.87987649     0.18500
H949        H  0.20691270  0.57078742  0.97905576     0.18500
N950        N  0.25775571  0.63791509  0.93567180    -0.88200
H951        H  0.05229487  0.65396432  0.94788421     0.35900
H952        H  0.04708222  0.59419701  0.95146170     0.41000
H953        H  0.27247649  0.60642368  0.92464446     0.40600
H954        H  0.26583002  0.64213618  0.97308974     0.35500
C955        C  0.10626883  0.86772513  0.70948755    -0.26300
C956        C  0.15522949  0.87271039  0.70612332    -0.14300
C957        C  0.17356052  0.90987060  0.67437352     0.36300
C958        C  0.14446308  0.93611009  0.64367016    -0.25700
C959        C  0.09586799  0.93165762  0.64454205    -0.14900
C960        C  0.07656763  0.89815027  0.68041610     0.37400
N961        N  0.02723745  0.89559958  0.68745158    -0.89200
H962        H  0.09120370  0.84028140  0.73441963     0.18500
H963        H  0.16014428  0.96343426  0.62085778     0.18500
N964        N  0.22230806  0.92220856  0.67293924    -0.88200
H965        H  0.01837020  0.86884847  0.71415579     0.35900
H966        H  0.01151297  0.88540547  0.65425730     0.41000
H967        H  0.22716245  0.95784883  0.68286571     0.40600
H968        H  0.23371857  0.91941354  0.63664271     0.35500
C969        C  0.33097519  0.90605313  0.83694496    -0.26300
C970        C  0.34585031  0.87471241  0.80221435    -0.14300
C971        C  0.39360395  0.87372340  0.79200458     0.36300
C972        C  0.42526683  0.90008005  0.82104447    -0.25700
C973        C  0.41099016  0.93078798  0.85800020    -0.14900
C974        C  0.36174015  0.93326396  0.86558510     0.37400
N975        N  0.33960407  0.96021788  0.90229812    -0.89200
H976        H  0.29414752  0.90858712  0.84350665     0.18500
H977        H  0.46183222  0.89587948  0.81481199     0.18500
N978        N  0.41005344  0.84761216  0.75127051    -0.88200
H979        H  0.31692002  0.98392910  0.88476167     0.35900
H980        H  0.36138295  0.97904198  0.92581214     0.41000
H981        H  0.40448235  0.81103099  0.75925280     0.40600
H982        H  0.44589568  0.85316536  0.74721018     0.35500
C983        C  0.38590430  0.68556020  0.65555045    -0.26300
C984        C  0.34369838  0.68843205  0.62903899    -0.14300
C985        C  0.33421470  0.65693340  0.59076005     0.36300
C986        C  0.36604706  0.62273135  0.58115271    -0.25700
C987        C  0.40951304  0.62029691  0.60557431    -0.14900
C988        C  0.41822435  0.65155266  0.64511956     0.37400
N989        N  0.45925965  0.64847146  0.67538894    -0.89200
H990        H  0.39322893  0.70837527  0.68644280     0.18500
H991        H  0.35666919  0.59736106  0.55338499     0.18500
N992        N  0.29319468  0.65884793  0.56032819    -0.88200
H993        H  0.44915821  0.64200392  0.71209229     0.35900
H994        H  0.47686732  0.68194273  0.67358055     0.41000
H995        H  0.29038740  0.69381044  0.54557724     0.40600
H996        H  0.26405486  0.64930274  0.58150258     0.35500
C997        C  0.16781942  0.83927101  0.58347030    -0.26300
C998        C  0.15479540  0.80036981  0.61485350    -0.14300
C999        C  0.10722378  0.78997043  0.62328401     0.36300
C1000       C  0.07436064  0.82073477  0.60315953    -0.25700
C1001       C  0.08648725  0.86126041  0.57237825    -0.14900
C1002       C  0.13521673  0.87068084  0.56334659     0.37400
N1003       N  0.15460788  0.91467325  0.54134124    -0.89200
H1004       H  0.20436012  0.84819711  0.57796017     0.18500
H1005       H  0.03875437  0.81309265  0.61333495     0.18500
N1006       N  0.09211987  0.74899610  0.65371620    -0.88200
H1007       H  0.13063507  0.93934786  0.52925957     0.35900
H1008       H  0.17693107  0.90724797  0.51283500     0.41000
H1009       H  0.10040927  0.71830661  0.63523120     0.40600
H1010       H  0.05606656  0.74748858  0.65770514     0.35500
C1011       C  0.36479479  0.57744699  0.71266598    -0.26300
C1012       C  0.32040657  0.58690385  0.69336924    -0.14300
C1013       C  0.30398372  0.56123007  0.65240944     0.36300
C1014       C  0.33523236  0.53467803  0.62633394    -0.25700
C1015       C  0.38144068  0.52954212  0.64149859    -0.14900
C1016       C  0.39499435  0.54808302  0.68788769     0.37400
N1017       N  0.43985433  0.53811361  0.70867334    -0.89200
H1018       H  0.37683550  0.59476527  0.74585791     0.18500
H1019       H  0.32510025  0.52220700  0.59131463     0.18500
N1020       N  0.25693663  0.56501664  0.63489312    -0.88200
H1021       H  0.44487016  0.55479460  0.74236328     0.35900
H1022       H  0.46498441  0.55282089  0.68441658     0.41000
H1023       H  0.23541307  0.54861821  0.66194034     0.40600
H1024       H  0.25138972  0.54563037  0.60290459     0.35500
C1025       C  0.07031094  0.58650736  0.82674592    -0.26300
C1026       C  0.08763024  0.54851685  0.85717781    -0.14300
C1027       C  0.13613269  0.54035518  0.85341380     0.36300
C1028       C  0.16401435  0.56888319  0.82214419    -0.25700
C1029       C  0.14759448  0.60826061  0.79604403    -0.14900
C1030       C  0.09949132  0.61646646  0.79681643     0.37400
N1031       N  0.07934849  0.65555326  0.76944433    -0.89200
H1032       H  0.03402996  0.59492911  0.82815163     0.18500
H1033       H  0.20054651  0.56104592  0.82095725     0.18500
N1034       N  0.16007200  0.50541150  0.88223613    -0.88200
H1035       H  0.08617223  0.65216741  0.73189663     0.35900
H1036       H  0.09454741  0.68775020  0.78134105     0.41000
H1037       H  0.17809522  0.48580427  0.85708584     0.40600
H1038       H  0.18723524  0.52313455  0.90058549     0.35500
loop_ 
_geom_bond_atom_site_label_1 
_geom_bond_atom_site_label_2 
_geom_bond_distance 
_geom_bond_site_symmetry_2 
_ccdc_geom_bond_type 
O1            C9   1.259       .  A
O1          Co21   1.953       .  S
O2           C10   1.251       .  A
O2          Co22   1.944       .  S
O3           C11   1.273       .  A
O3          Co23   2.026       .  S
O4           C12   1.292       .  A
O4          Co24   2.048       .  S
O5           C11   1.252       .  A
O5          Co22   1.912       .  S
O6           C12   1.263       .  A
O6          Co21   1.968       .  S
O7           C10   1.267       .  A
O7          Co24   2.022       .  S
O8            C9   1.266       .  A
O8          Co23   2.030       .  S
C9         C1012   1.489       .  S
C10         C970   1.479       .  S
C11         C984   1.465       .  S
C12         C931   1.493       .  S
O13          C26   1.257       .  A
O13         Co21   1.992       .  S
O14          C27   1.265       .  A
O14         Co22   2.030       .  S
O15          C28   1.251       .  A
O15         Co23   1.930       .  S
O16          C29   1.276       .  A
O16         Co24   2.015       .  S
O17          C29   1.274       .  A
O17         Co22   2.010       .  S
O18          C28   1.282       .  A
O18         Co21   2.033       .  S
O19          C26   1.270       .  A
O19         Co24   2.014       .  S
O20          C27   1.247       .  A
O20         Co23   1.927       .  S
Co21         O25   2.100       .  S
Co22         O25   2.100       .  S
Co23         O25   2.092       .  S
Co24         O25   2.106       .  S
C26         C942   1.496       .  S
C27         C998   1.478       .  S
C28        C1029   1.473       .  S
C29         C956   1.509       .  S
O30          C38   1.287       .  A
O30         Co50   2.006       .  S
O31          C39   1.260       .  A
O31         Co51   1.929       .  S
O32          C40   1.265       .  A
O32         Co52   2.051       .  S
O33          C41   1.256       .  A
O33         Co53   2.002       .  S
O34          C40   1.233       .  A
O34         Co51   1.887       .  S
O35          C41   1.273       .  A
O35         Co50   2.026       .  S
O36          C39   1.289       .  A
O36         Co53   2.049       .  S
O37          C38   1.288       .  A
O37         Co52   2.041       .  S
C38         C903   1.509       .  S
C39         C858   1.463       .  S
C40         C889   1.475       .  S
C41         C816   1.510       .  S
O42          C55   1.295       .  A
O42         Co50   2.035       .  S
O43          C56   1.295       .  A
O43         Co51   2.087       .  S
O44          C57   1.263       .  A
O44         Co52   2.012       .  S
O45          C58   1.263       .  A
O45         Co53   2.005       .  S
O46          C58   1.243       .  A
O46         Co51   1.953       .  S
O47          C57   1.257       .  A
O47         Co50   1.986       .  S
O48          C55   1.275       .  A
O48         Co53   1.971       .  S
O49          C56   1.264       .  A
O49         Co52   1.956       .  S
Co50         O54   2.077       .  S
Co51         O54   2.056       .  S
Co52         O54   2.112       .  S
Co53         O54   2.094       .  S
C55         C830   1.492       .  S
C56         C875   1.488       .  S
C57         C914   1.495       .  S
C58         C847   1.485       .  S
O59          C67   1.269       .  A
O59         Co79   2.013       .  S
O60          C68   1.269       .  A
O60         Co80   2.039       .  S
O61          C69   1.296       .  A
O61         Co81   2.091       .  S
O62          C70   1.285       .  A
O62         Co82   2.002       .  S
O63          C69   1.292       .  A
O63         Co80   2.032       .  S
O64          C70   1.283       .  A
O64         Co79   2.013       .  S
O65          C68   1.263       .  A
O65         Co82   2.029       .  S
O66          C67   1.257       .  A
O66         Co81   1.965       .  S
C67         C791   1.502       .  S
C68         C735   1.536       .  S
C69         C718   1.540       .  S
C70         C774   1.507       .  S
O71          C84   1.256       .  A
O71         Co79   2.014       .  S
O72          C85   1.253       .  A
O72         Co80   1.997       .  S
O73          C86   1.281       .  A
O73         Co81   1.990       .  S
O74          C87   1.271       .  A
O74         Co82   1.965       .  S
O75          C87   1.308       .  A
O75         Co80   2.132       .  S
O76          C86   1.292       .  A
O76         Co79   2.053       .  S
O77          C84   1.273       .  A
O77         Co82   2.031       .  S
O78          C85   1.263       .  A
O78         Co81   2.010       .  S
Co79         O83   2.109       .  S
Co80         O83   2.098       .  S
Co81         O83   2.087       .  S
Co82         O83   2.089       .  S
C84         C760   1.519       .  S
C85         C704   1.503       .  S
C86         C802   1.499       .  S
C87         C746   1.515       .  S
C88          C89   1.490       .  A
C88          C93   1.488   1_565  A
C88          N94   1.558       .  S
C89          C90   1.475   1_554  A
C89         N122   1.507       .  S
C90          C91   1.476   1_565  A
C90         N129   1.612       .  S
C91          C92   1.473       .  A
C91         N108   1.507   1_545  S
C92          C93   1.519   1_556  A
C92         N115   1.542       .  S
C93         N101   1.469       .  S
N94          C98   1.419       .  A
N94          C95   1.412       .  A
C95         C721   1.528       .  S
C95          C96   1.383       .  A
C96          C97   1.325       .  A
C96          H99   1.080       .  S
C97          C98   1.383       .  A
C97         H100   1.086       .  S
C98         C690   1.519   1_565  S
N101        C105   1.349   1_554  A
N101        C102   1.366       .  A
C102        C676   1.520       .  S
C102        C103   1.388       .  A
C103        C104   1.361       .  A
C103        H106   1.082       .  S
C104        C105   1.397   1_554  A
C104        H107   1.081   1_554  S
C105        C844   1.497       .  S
N108        C112   1.362       .  A
N108        C109   1.372   1_565  A
C109        C662   1.529       .  S
C109        C110   1.371       .  A
C110        C111   1.359   1_545  A
C110        H113   1.072       .  S
C111        C112   1.385       .  A
C111        H114   1.080       .  S
C112        C973   1.527       .  S
N115        C119   1.396       .  A
N115        C116   1.412       .  A
C116        C648   1.525       .  S
C116        C117   1.389       .  A
C117        C118   1.343       .  A
C117        H120   1.086       .  S
C118        C119   1.385       .  A
C118        H121   1.080       .  S
C119        C872   1.519       .  S
N122        C126   1.383       .  A
N122        C123   1.358       .  A
C123        C788   1.510       .  S
C123        C124   1.396       .  A
C124        C125   1.351       .  A
C124        H127   1.081       .  S
C125        C126   1.381       .  A
C125        H128   1.082       .  S
C126        C634   1.539       .  S
N129        C133   1.527       .  A
N129        C130   1.533   1_556  A
C130        C623   1.574       .  S
C130        C131   1.231   1_554  A
C131        C132   1.375   1_556  A
C131        H134   1.154       .  S
C132        C133   1.266   1_554  A
C132        H135   1.103       .  S
C133        C928   1.594       .  S
C136        C137   1.468       .  A
C136        C141   1.516   1_556  A
C136        N149   1.532       .  S
C137        C138   1.500   1_455  A
C137        N170   1.550       .  S
C138        C139   1.531   1_556  A
C138        N177   1.499       .  S
C139        C140   1.496   1_655  A
C139        N163   1.549       .  S
C140        C141   1.499       .  A
C140        N156   1.527       .  S
C141        N142   1.514       .  S
N142        C146   1.381       .  A
N142        C143   1.358   1_554  A
C143        C945   1.515       .  S
C143        C144   1.401       .  A
C144        C145   1.357   1_556  A
C144        H147   1.077       .  S
C145        C146   1.384       .  A
C145        H148   1.081       .  S
C146        C606   1.551       .  S
N149        C153   1.383       .  A
N149        C150   1.374       .  A
C150       C1026   1.533       .  S
C150        C151   1.385       .  A
C151        C152   1.359       .  A
C151        H154   1.082   1_455  S
C152        C153   1.394       .  A
C152        H155   1.076       .  S
C153        C592   1.554       .  S
N156        C160   1.378       .  A
N156        C157   1.380   1_455  A
C157        C732   1.551       .  S
C157        C158   1.384       .  A
C158        C159   1.355   1_655  A
C158        H161   1.061       .  S
C159        C160   1.376       .  A
C159        H162   1.079       .  S
C160        C581   1.547       .  S
N163        C167   1.400       .  A
N163        C164   1.416       .  A
C164        C777   1.530       .  S
C164        C165   1.385       .  A
C165        C166   1.338       .  A
C165        H168   1.088       .  S
C166        C167   1.383       .  A
C166        H169   1.072       .  S
C167        C564   1.529       .  S
N170        C174   1.404       .  A
N170        C171   1.371   1_455  A
C171        C819   1.540       .  S
C171        C172   1.397       .  A
C172        C173   1.354   1_655  A
C172        H175   1.075   1_556  S
C173        C174   1.378       .  A
C173        H176   1.081   1_556  S
C174        C550   1.584       .  S
N177        C181   1.385       .  A
N177        C178   1.354       .  A
C178        C536   1.518   1_556  S
C178        C179   1.402       .  A
C179        C180   1.359       .  A
C179        H182   1.081       .  S
C180        C181   1.381       .  A
C180        H183   1.080       .  S
C181        C861   1.542       .  S
C184        C185   1.512       .  A
C184        C189   1.483       .  A
C184        N190   1.505       .  S
C185        C186   1.508       .  A
C185        N218   1.575       .  S
C186        C187   1.559       .  A
C186        N197   1.500       .  S
C187        C188   1.489       .  A
C187        N211   1.567       .  S
C188        C189   1.493       .  A
C188        N204   1.521       .  S
C189        N225   1.523       .  S
N190        C194   1.353       .  A
N190        C191   1.378       .  A
C191        C886   1.537       .  S
C191        C192   1.381       .  A
C192        C193   1.348       .  A
C192        H195   1.077       .  S
C193        C194   1.396       .  A
C193        H196   1.081       .  S
C194        C522   1.521       .  S
N197        C201   1.382       .  A
N197        C198   1.360       .  A
C198        C511   1.534       .  S
C198        C199   1.410       .  A
C199        C200   1.357       .  A
C199        H202   1.075       .  S
C200        C201   1.373       .  A
C200        H203   1.078       .  S
C201        C987   1.548       .  S
N204        C208   1.378       .  A
N204        C205   1.373       .  A
C205        C763   1.557       .  S
C205        C206   1.402       .  A
C206        C207   1.353       .  A
C206        H209   1.081       .  S
C207        C208   1.378       .  A
C207        H210   1.078       .  S
C208        C494   1.535       .  S
N211        C215   1.410       .  A
N211        C212   1.377       .  A
C212        C480   1.517       .  S
C212        C213   1.392       .  A
C213        C214   1.349       .  A
C213        H216   1.082       .  S
C214        C215   1.375       .  A
C214        H217   1.083       .  S
C215        C805   1.595       .  S
N218        C222   1.420       .  A
N218        C219   1.410       .  A
C219       C1015   1.493       .  S
C219        C220   1.376       .  A
C220        C221   1.317       .  A
C220        H223   1.088       .  S
C221        C222   1.386       .  A
C221        H224   1.076       .  S
C222        C466   1.549       .  S
N225        C229   1.363       .  A
N225        C226   1.385       .  A
C226        C900   1.558       .  S
C226        C227   1.380       .  A
C227        C228   1.355       .  A
C227        H230   1.081       .  S
C228        C229   1.392       .  A
C228        H231   1.082       .  S
C229        C455   1.522       .  S
C232        C233   1.492       .  A
C232        C237   1.524   1_455  A
C232        N252   1.486       .  S
C233        C234   1.513   1_465  A
C233        N245   1.570       .  S
C234        C235   1.493       .  A
C234        N238   1.510       .  S
C235        C236   1.500       .  A
C235        N259   1.530       .  S
C236        C237   1.514   1_545  A
C236        N266   1.522       .  S
C237        N273   1.558       .  S
N238        C242   1.389       .  A
N238        C239   1.349   1_655  A
C239        C438   1.517       .  S
C239        C240   1.401   1_455  A
C240        C241   1.356       .  A
C240        H243   1.081   1_655  S
C241        C242   1.379       .  A
C241        H244   1.083   1_545  S
C242        C833   1.552       .  S
N245        C249   1.417       .  A
N245        C246   1.415   1_565  A
C246        C424   1.543       .  S
C246        C247   1.381       .  A
C247        C248   1.335       .  A
C247        H250   1.078       .  S
C248        C249   1.391   1_545  A
C248        H251   1.089       .  S
C249        C959   1.527       .  S
N252        C256   1.350       .  A
N252        C253   1.361       .  A
C253       C1001   1.537       .  S
C253        C254   1.392       .  A
C254        C255   1.363       .  A
C254        H257   1.080   1_455  S
C255        C256   1.390       .  A
C255        H258   1.070       .  S
C256        C413   1.509       .  S
N259        C263   1.376       .  A
N259        C260   1.382       .  A
C260        C396   1.530       .  S
C260        C261   1.370       .  A
C261        C262   1.350       .  A
C261        H264   1.079   1_655  S
C262        C263   1.384       .  A
C262        H265   1.078       .  S
C263        C917   1.531       .  S
N266        C270   1.358   1_545  A
N266        C267   1.370       .  A
C267        C382   1.552       .  S
C267        C268   1.382       .  A
C268        C269   1.350       .  A
C268        H271   1.080   1_655  S
C269        C270   1.403   1_545  A
C269        H272   1.082       .  S
C270        C707   1.532       .  S
N273        C277   1.419       .  A
N273        C274   1.401   1_655  A
C274        C368   1.495       .  S
C274        C275   1.387   1_455  A
C275        C276   1.337       .  A
C275        H278   1.087       .  S
C276        C277   1.386       .  A
C276        H279   1.078       .  S
C277        C749   1.545       .  S
O280        C288   1.273       .  A
O280       Co300   1.980       .  S
O281        C289   1.278       .  A
O281       Co301   1.998       .  S
O282        C290   1.241       .  A
O282       Co302   1.948       .  S
O283        C291   1.256       .  A
O283       Co303   1.958       .  S
O284        C290   1.270       .  A
O284       Co301   2.028       .  S
O285        C291   1.269       .  A
O285       Co300   2.020       .  S
O286        C289   1.304       .  A
O286       Co303   2.121       .  S
O287        C288   1.303       .  A
O287       Co302   2.130       .  S
C288        C427   1.525       .  S
C289        C469   1.535       .  S
C290        C441   1.486       .  S
C291        C525   1.499       .  S
O292        C305   1.282       .  A
O292       Co300   2.025       .  S
O293        C306   1.294       .  A
O293       Co301   2.066       .  S
O294        C307   1.251       .  A
O294       Co302   1.972       .  S
O295        C308   1.271       .  A
O295       Co303   2.036       .  S
O296        C308   1.265       .  A
O296       Co301   2.027       .  S
O297        C307   1.265       .  A
O297       Co300   2.027       .  S
O298        C305   1.295       .  A
O298       Co303   2.049       .  S
O299        C306   1.277       .  A
O299       Co302   1.992       .  S
Co300       O304   2.113       .  S
Co301       O304   2.106       .  S
Co302       O304   2.094       .  S
Co303       O304   2.096       .  S
C305        C651   1.530       .  S
C306        C553   1.509       .  S
C307        C665   1.494       .  S
C308        C595   1.530       .  S
O309        C317   1.280       .  A
O309       Co329   2.026       .  S
O310        C318   1.296       .  A
O310       Co330   2.121       .  S
O311        C319   1.278       .  A
O311       Co331   2.005       .  S
O312        C320   1.246       .  A
O312       Co332   1.932       .  S
O313        C319   1.248       .  A
O313       Co330   1.954       .  S
O314        C320   1.270       .  A
O314       Co329   2.037       .  S
O315        C318   1.231       .  A
O315       Co332   1.886       .  S
O316        C317   1.269       .  A
O316       Co331   1.947       .  S
C317        C385   1.473       .  S
C318        C567   1.485       .  S
C319        C539   1.477       .  S
C320        C399   1.479       .  S
O321        C334   1.275       .  A
O321       Co329   2.016       .  S
O322        C335   1.267       .  A
O322       Co330   1.984       .  S
O323        C336   1.274       .  A
O323       Co331   2.003       .  S
O324        C337   1.271       .  A
O324       Co332   2.058       .  S
O325        C337   1.237       .  A
O325       Co330   1.898       .  S
O326        C336   1.270       .  A
O326       Co329   2.002       .  S
O327        C334   1.269       .  A
O327       Co332   1.994       .  S
O328        C335   1.261       .  A
O328       Co331   1.967       .  S
Co329       O333   2.123       .  S
Co330       O333   2.082       .  S
Co331       O333   2.083       .  S
Co332       O333   2.088       .  S
C334        C452   1.499       .  S
C335        C679   1.468       .  S
C336        C693   1.502       .  S
C337        C497   1.482       .  S
O338        C346   1.263       .  A
O338       Co358   1.968       .  S
O339        C347   1.270       .  A
O339       Co359   1.992       .  S
O340        C348   1.269       .  A
O340       Co360   1.999       .  S
O341        C349   1.277       .  A
O341       Co361   2.035       .  S
O342        C348   1.283       .  A
O342       Co359   2.039       .  S
O343        C349   1.268       .  A
O343       Co358   1.980       .  S
O344        C347   1.269       .  A
O344       Co361   2.013       .  S
O345        C346   1.271       .  A
O345       Co360   2.007       .  S
C346        C483   1.472       .  S
C347        C578   1.497       .  S
C348        C508   1.523       .  S
C349        C609   1.500       .  S
O350        C363   1.268       .  A
O350       Co358   2.016       .  S
O351        C364   1.266       .  A
O351       Co359   1.996       .  S
O352        C365   1.266       .  A
O352       Co360   1.969       .  S
O353        C366   1.257       .  A
O353       Co361   1.935       .  S
O354        C366   1.286       .  A
O354       Co359   2.052       .  S
O355        C365   1.275       .  A
O355       Co358   2.010       .  S
O356        C363   1.259       .  A
O356       Co361   1.984       .  S
O357        C364   1.271       .  A
O357       Co360   1.994       .  S
Co358       O362   2.089       .  S
Co359       O362   2.096       .  S
Co360       O362   2.096       .  S
Co361       O362   2.099       .  S
C363        C620   1.494       .  S
C364        C410   1.487       .  S
C365        C637   1.481       .  S
C366        C371   1.479       .  S
C367        C368   1.406       .  A
C367        C372   1.384       .  A
C367        H374   1.054       .  S
C368        C369   1.411       .  A
C369        C370   1.413       .  A
C369        N376   1.431       .  S
C370        C371   1.415       .  A
C370        H375   1.083       .  S
C371        C372   1.395       .  A
C372        N373   1.432       .  S
N373        H377   1.043       .  S
N373        H378   1.044       .  S
N376        H379   1.045       .  S
N376        H380   1.045       .  S
C381        C382   1.422       .  A
C381        C386   1.395       .  A
C381        H388   1.076       .  S
C382        C383   1.434       .  A
C383        C384   1.392       .  A
C383        N390   1.432       .  S
C384        C385   1.395       .  A
C384        H389   1.084       .  S
C385        C386   1.399       .  A
C386        N387   1.433       .  S
N387        H391   1.045       .  S
N387        H392   1.046       .  S
N390        H393   1.037       .  S
N390        H394   1.043       .  S
C395        C396   1.408       .  A
C395        C400   1.390       .  A
C395        H402   1.070       .  S
C396        C397   1.417       .  A
C397        C398   1.408       .  A
C397        N404   1.432       .  S
C398        C399   1.411       .  A
C398        H403   1.083       .  S
C399        C400   1.397       .  A
C400        N401   1.434       .  S
N401        H405   1.045       .  S
N401        H406   1.045       .  S
N404        H407   1.046       .  S
N404        H408   1.045       .  S
C409        C410   1.404       .  A
C409        C414   1.386       .  A
C409        H416   1.084       .  S
C410        C411   1.411       .  A
C411        C412   1.416       .  A
C411        N418   1.437       .  S
C412        C413   1.412       .  A
C412        H417   1.084       .  S
C413        C414   1.417       .  A
C414        N415   1.433       .  S
N415        H419   1.045       .  S
N415        H420   1.045       .  S
N418        H421   1.043       .  S
N418        H422   1.045       .  S
C423        C424   1.425       .  A
C423        C428   1.428       .  A
C423        H430   1.080       .  S
C424        C425   1.422       .  A
C425        C426   1.429       .  A
C425        N432   1.434       .  S
C426        C427   1.411       .  A
C426        H431   1.082       .  S
C427        C428   1.421       .  A
C428        N429   1.430       .  S
N429        H433   1.045       .  S
N429        H434   1.045       .  S
N432        H435   1.046       .  S
N432        H436   1.045       .  S
C437        C438   1.405       .  A
C437        C442   1.391       .  A
C437        H444   1.080       .  S
C438        C439   1.426       .  A
C439        C440   1.410       .  A
C439        N446   1.423       .  S
C440        C441   1.390       .  A
C440        H445   1.082       .  S
C441        C442   1.420       .  A
C442        N443   1.435       .  S
N443        H447   1.046       .  S
N443        H448   1.046       .  S
N446        H449   1.034       .  S
N446        H450   1.045       .  S
C451        C452   1.411       .  A
C451        C456   1.427       .  A
C451        H458   1.083       .  S
C452        C453   1.414       .  A
C453        C454   1.389       .  A
C453        N460   1.440       .  S
C454        C455   1.407       .  A
C454        H459   1.082       .  S
C455        C456   1.424       .  A
C456        N457   1.438       .  S
N457        H461   1.045       .  S
N457        H462   1.038       .  S
N460        H463   1.046       .  S
N460        H464   1.046       .  S
C465        C466   1.421       .  A
C465        C470   1.428       .  A
C465        H472   1.077       .  S
C466        C467   1.430       .  A
C467        C468   1.436       .  A
C467        N474   1.429       .  S
C468        C469   1.416       .  A
C468        H473   1.077       .  S
C469        C470   1.421       .  A
C470        N471   1.430       .  S
N471        H475   1.045       .  S
N471        H476   1.045       .  S
N474        H477   1.043       .  S
N474        H478   1.045       .  S
C479        C480   1.415       .  A
C479        C484   1.375       .  A
C479        H486   1.082       .  S
C480        C481   1.425       .  A
C481        C482   1.413       .  A
C481        N488   1.434       .  S
C482        C483   1.406       .  A
C482        H487   1.083       .  S
C483        C484   1.404       .  A
C484        N485   1.436       .  S
N485        H489   1.043       .  S
N485        H490   1.046       .  S
N488        H491   1.035       .  S
N488        H492   1.045       .  S
C493        C494   1.415       .  A
C493        C498   1.389       .  A
C493        H500   1.059       .  S
C494        C495   1.420       .  A
C495        C496   1.405       .  A
C495        N502   1.439       .  S
C496        C497   1.414       .  A
C496        H501   1.083       .  S
C497        C498   1.396       .  A
C498        N499   1.432       .  S
N499        H503   1.045       .  S
N499        H504   1.045       .  S
N502        H505   1.041       .  S
N502        H506   1.045       .  S
C507        C508   1.411       .  A
C507        C512   1.390       .  A
C507        H514   1.083       .  S
C508        C509   1.426       .  A
C509        C510   1.428       .  A
C509        N516   1.436       .  S
C510        C511   1.421       .  A
C510        H515   1.083       .  S
C511        C512   1.414       .  A
C512        N513   1.428       .  S
N513        H517   1.046       .  S
N513        H518   1.046       .  S
N516        H519   1.040       .  S
N516        H520   1.046       .  S
C521        C522   1.417       .  A
C521        C526   1.424       .  A
C521        H528   1.081       .  S
C522        C523   1.413       .  A
C523        C524   1.388       .  A
C523        N530   1.433       .  S
C524        C525   1.407       .  A
C524        H529   1.085       .  S
C525        C526   1.410       .  A
C526        N527   1.435       .  S
N527        H531   1.045       .  S
N527        H532   1.038       .  S
N530        H533   1.046       .  S
N530        H534   1.046       .  S
C535        C536   1.405       .  A
C535        C540   1.396       .  A
C535        H542   1.079       .  S
C536        C537   1.415       .  A
C537        C538   1.395       .  A
C537        N544   1.411       .  S
C538        C539   1.381       .  A
C538        H543   1.081       .  S
C539        C540   1.421       .  A
C540        N541   1.433       .  S
N541        H545   1.046       .  S
N541        H546   1.046       .  S
N544        H547   1.044       .  S
N544        H548   1.036       .  S
C549        C550   1.435       .  A
C549        C554   1.433       .  A
C549        H556   1.080       .  S
C550        C551   1.434       .  A
C551        C552   1.401       .  A
C551        N558   1.408       .  S
C552        C553   1.384       .  A
C552        H557   1.085       .  S
C553        C554   1.412       .  A
C554        N555   1.437       .  S
N555        H559   1.045       .  S
N555        H560   1.045       .  S
N558        H561   1.043       .  S
N558        H562   1.047       .  S
C563        C564   1.398       .  A
C563        C568   1.425       .  A
C563        H570   1.079       .  S
C564        C565   1.435       .  A
C565        C566   1.410       .  A
C565        N572   1.436       .  S
C566        C567   1.399       .  A
C566        H571   1.084       .  S
C567        C568   1.435       .  A
C568        N569   1.436       .  S
N569        H573   1.046       .  S
N569        H574   1.045       .  S
N572        H575   1.043       .  S
N572        H576   1.044       .  S
C577        C578   1.401       .  A
C577        C582   1.396       .  A
C577        H584   1.084       .  S
C578        C579   1.407       .  A
C579        C580   1.414       .  A
C579        N586   1.438       .  S
C580        C581   1.427       .  A
C580        H585   1.081       .  S
C581        C582   1.432       .  A
C582        N583   1.432       .  S
N583        H587   1.044       .  S
N583        H588   1.035       .  S
N586        H589   1.041       .  S
N586        H590   1.045       .  S
C591        C592   1.422       .  A
C591        C596   1.431       .  A
C591        H598   1.083       .  S
C592        C593   1.430       .  A
C593        C594   1.413       .  A
C593        N600   1.432       .  S
C594        C595   1.407       .  A
C594        H599   1.083       .  S
C595        C596   1.418       .  A
C596        N597   1.431       .  S
N597        H601   1.043       .  S
N597        H602   1.045       .  S
N600        H603   1.046       .  S
N600        H604   1.046       .  S
C605        C606   1.424       .  A
C605        C610   1.417       .  A
C605        H612   1.080       .  S
C606        C607   1.431       .  A
C607        C608   1.402       .  A
C607        N614   1.426       .  S
C608        C609   1.397       .  A
C608        H613   1.084       .  S
C609        C610   1.410       .  A
C610        N611   1.438       .  S
N611        H615   1.045       .  S
N611        H616   1.041       .  S
N614        H617   1.045       .  S
N614        H618   1.039       .  S
C619        C620   1.414       .  A
C619        C624   1.429       .  A
C619        H626   1.083       .  S
C620        C621   1.403       .  A
C621        C622   1.379       .  A
C621        N628   1.437       .  S
C622        C623   1.420       .  A
C622        H627   1.056       .  S
C623        C624   1.417       .  A
C624        N625   1.436       .  S
N625        H629   1.045       .  S
N625        H630   1.045       .  S
N628        H631   1.046       .  S
N628        H632   1.044       .  S
C633        C634   1.424       .  A
C633        C638   1.414       .  A
C633        H640   1.082       .  S
C634        C635   1.425       .  A
C635        C636   1.384       .  A
C635        N642   1.428       .  S
C636        C637   1.393       .  A
C636        H641   1.084       .  S
C637        C638   1.409       .  A
C638        N639   1.437       .  S
N639        H643   1.045       .  S
N639        H644   1.046       .  S
N642        H645   1.042       .  S
N642        H646   1.043       .  S
C647        C648   1.408       .  A
C647        C652   1.398       .  A
C647        H654   1.079       .  S
C648        C649   1.425       .  A
C649        C650   1.439       .  A
C649        N656   1.436       .  S
C650        C651   1.417       .  A
C650        H655   1.083       .  S
C651        C652   1.424       .  A
C652        N653   1.435       .  S
N653        H657   1.046       .  S
N653        H658   1.046       .  S
N656        H659   1.045       .  S
N656        H660   1.045       .  S
C661        C662   1.407       .  A
C661        C666   1.421       .  A
C661        H668   1.082       .  S
C662        C663   1.434       .  A
C663        C664   1.393       .  A
C663        N670   1.434       .  S
C664        C665   1.392       .  A
C664        H669   1.084       .  S
C665        C666   1.419       .  A
C666        N667   1.436       .  S
N667        H671   1.046       .  S
N667        H672   1.045       .  S
N670        H673   1.045   1_545  S
N670        H674   1.046       .  S
C675        C676   1.422       .  A
C675        C680   1.405       .  A
C675        H682   1.082       .  S
C676        C677   1.426       .  A
C677        C678   1.377       .  A
C677        N684   1.443       .  S
C678        C679   1.401       .  A
C678        H683   1.083       .  S
C679        C680   1.401       .  A
C680        N681   1.437       .  S
N681        H685   1.045       .  S
N681        H686   1.046       .  S
N684        H687   1.033       .  S
N684        H688   1.046       .  S
C689        C690   1.422       .  A
C689        C694   1.435       .  A
C689        H696   1.083       .  S
C690        C691   1.424       .  A
C691        C692   1.382       .  A
C691        N698   1.423       .  S
C692        C693   1.393       .  A
C692        H697   1.084       .  S
C693        C694   1.418       .  A
C694        N695   1.436       .  S
N695        H699   1.045       .  S
N695        H700   1.042       .  S
N698        H701   1.045       .  S
N698        H702   1.046   1_545  S
C703        C704   1.402       .  A
C703        C708   1.416       .  A
C703        H710   1.081       .  S
C704        C705   1.415       .  A
C705        C706   1.403       .  A
C705        N712   1.433       .  S
C706        C707   1.411       .  A
C706        H711   1.080       .  S
C707        C708   1.419       .  A
C708        N709   1.434       .  S
N709        H713   1.038       .  S
N709        H714   1.044       .  S
N712        H715   1.046       .  S
N712        H716   1.046       .  S
C717        C718   1.415       .  A
C717        C722   1.435       .  A
C717        H724   1.083       .  S
C718        C719   1.423       .  A
C719        C720   1.434       .  A
C719        N726   1.434       .  S
C720        C721   1.420       .  A
C720        H725   1.081       .  S
C721        C722   1.415       .  A
C722        N723   1.432   1_565  S
N723        H727   1.046       .  S
N723        H728   1.044   1_554  S
N726        H729   1.043       .  S
N726        H730   1.045       .  S
C731        C732   1.416       .  A
C731        C736   1.401       .  A
C731        H738   1.082       .  S
C732        C733   1.429       .  A
C733        C734   1.434       .  A
C733        N740   1.437       .  S
C734        C735   1.420       .  A
C734        H739   1.083       .  S
C735        C736   1.422       .  A
C736        N737   1.431       .  S
N737        H741   1.044       .  S
N737        H742   1.045       .  S
N740        H743   1.043       .  S
N740        H744   1.045       .  S
C745        C746   1.414       .  A
C745        C750   1.434       .  A
C745        H752   1.082       .  S
C746        C747   1.408       .  A
C747        C748   1.424       .  A
C747        N754   1.435       .  S
C748        C749   1.431       .  A
C748        H753   1.073       .  S
C749        C750   1.418       .  A
C750        N751   1.437       .  S
N751        H755   1.045       .  S
N751        H756   1.044       .  S
N754        H757   1.046       .  S
N754        H758   1.044       .  S
C759        C760   1.404       .  A
C759        C764   1.421       .  A
C759        H766   1.083       .  S
C760        C761   1.424       .  A
C761        C762   1.403       .  A
C761        N768   1.433       .  S
C762        C763   1.415       .  A
C762        H767   1.080       .  S
C763        C764   1.438       .  A
C764        N765   1.433       .  S
N765        H769   1.043       .  S
N765        H770   1.038       .  S
N768        H771   1.045       .  S
N768        H772   1.045       .  S
C773        C774   1.390       .  A
C773        C778   1.375       .  A
C773        H780   1.084       .  S
C774        C775   1.416       .  A
C775        C776   1.439       .  A
C775        N782   1.434       .  S
C776        C777   1.429       .  A
C776        H781   1.083       .  S
C777        C778   1.426       .  A
C778        N779   1.416       .  S
N779        H783   1.046       .  S
N779        H784   1.046       .  S
N782        H785   1.045       .  S
N782        H786   1.045       .  S
C787        C788   1.415       .  A
C787        C792   1.420       .  A
C787        H794   1.083       .  S
C788        C789   1.415       .  A
C789        C790   1.391       .  A
C789        N796   1.433       .  S
C790        C791   1.405       .  A
C790        H795   1.085       .  S
C791        C792   1.414       .  A
C792        N793   1.433       .  S
N793        H797   1.045       .  S
N793        H798   1.045       .  S
N796        H799   1.046       .  S
N796        H800   1.046       .  S
C801        C802   1.389       .  A
C801        C806   1.396       .  A
C801        H808   1.085       .  S
C802        C803   1.409       .  A
C803        C804   1.422       .  A
C803        N810   1.437       .  S
C804        C805   1.435       .  A
C804        H809   1.083       .  S
C805        C806   1.449       .  A
C806        N807   1.424       .  S
N807        H811   1.044       .  S
N807        H812   1.014       .  S
N810        H813   1.044       .  S
N810        H814   1.045       .  S
C815        C816   1.410       .  A
C815        C820   1.407       .  A
C815        H822   1.084       .  S
C816        C817   1.414       .  A
C817        C818   1.418       .  A
C817        N824   1.438       .  S
C818        C819   1.415       .  A
C818        H823   1.077       .  S
C819        C820   1.426       .  A
C820        N821   1.429       .  S
N821        H825   1.046       .  S
N821        H826   1.046       .  S
N824        H827   1.041       .  S
N824        H828   1.046       .  S
C829        C830   1.385       .  A
C829        C834   1.382       .  A
C829        H836   1.086       .  S
C830        C831   1.421       .  A
C831        C832   1.419       .  A
C831        N838   1.437       .  S
C832        C833   1.425       .  A
C832        H837   1.084       .  S
C833        C834   1.429       .  A
C834        N835   1.422       .  S
N835        H839   1.044       .  S
N835        H840   1.044       .  S
N838        H841   1.039       .  S
N838        H842   1.045       .  S
C843        C844   1.413       .  A
C843        C848   1.405       .  A
C843        H850   1.083       .  S
C844        C845   1.408       .  A
C845        C846   1.390       .  A
C845        N852   1.432       .  S
C846        C847   1.410       .  A
C846        H851   1.084       .  S
C847        C848   1.407       .  A
C848        N849   1.435       .  S
N849        H853   1.043       .  S
N849        H854   1.042       .  S
N852        H855   1.046   1_556  S
N852        H856   1.046       .  S
C857        C858   1.411       .  A
C857        C862   1.415       .  A
C857        H864   1.083       .  S
C858        C859   1.390       .  A
C859        C860   1.377       .  A
C859        N866   1.441       .  S
C860        C861   1.406       .  A
C860        H865   1.057       .  S
C861        C862   1.420       .  A
C862        N863   1.436       .  S
N863        H867   1.046       .  S
N863        H868   1.045       .  S
N866        H869   1.046       .  S
N866        H870   1.045       .  S
C871        C872   1.411       .  A
C871        C876   1.427       .  A
C871        H878   1.082       .  S
C872        C873   1.429       .  A
C873        C874   1.407       .  A
C873        N880   1.434       .  S
C874        C875   1.398       .  A
C874        H879   1.083       .  S
C875        C876   1.423       .  A
C876        N877   1.437       .  S
N877        H881   1.046       .  S
N877        H882   1.036       .  S
N880        H883   1.046       .  S
N880        H884   1.046       .  S
C885        C886   1.417       .  A
C885        C890   1.398       .  A
C885        H892   1.074       .  S
C886        C887   1.418       .  A
C887        C888   1.401       .  A
C887        N894   1.439       .  S
C888        C889   1.412       .  A
C888        H893   1.083       .  S
C889        C890   1.393       .  A
C890        N891   1.438       .  S
N891        H895   1.046       .  S
N891        H896   1.046       .  S
N894        H897   1.043       .  S
N894        H898   1.046       .  S
C899        C900   1.428       .  A
C899        C904   1.415       .  A
C899        H906   1.081       .  S
C900        C901   1.437       .  A
C901        C902   1.396       .  A
C901        N908   1.436       .  S
C902        C903   1.402       .  A
C902        H907   1.083       .  S
C903        C904   1.412       .  A
C904        N905   1.431       .  S
N905        H909   1.045       .  S
N905        H910   1.045       .  S
N908        H911   1.034       .  S
N908        H912   1.043       .  S
C913        C914   1.399       .  A
C913        C918   1.385       .  A
C913        H920   1.084       .  S
C914        C915   1.414       .  A
C915        C916   1.425       .  A
C915        N922   1.436       .  S
C916        C917   1.415       .  A
C916        H921   1.083       .  S
C917        C918   1.427       .  A
C918        N919   1.435       .  S
N919        H923   1.046       .  S
N919        H924   1.046       .  S
N922        H925   1.040       .  S
N922        H926   1.045       .  S
C927        C928   1.419       .  A
C927        C932   1.423       .  A
C927        H934   1.083       .  S
C928        C929   1.455       .  A
C929        C930   1.380       .  A
C929        N936   1.437       .  S
C930        C931   1.378       .  A
C930        H935   1.087       .  S
C931        C932   1.419       .  A
C932        N933   1.435       .  S
N933        H937   1.043       .  S
N933        H938   1.043       .  S
N936        H939   1.045       .  S
N936        H940   1.044       .  S
C941        C942   1.404       .  A
C941        C946   1.415       .  A
C941        H948   1.083       .  S
C942        C943   1.416       .  A
C943        C944   1.393       .  A
C943        N950   1.434       .  S
C944        C945   1.407       .  A
C944        H949   1.082       .  S
C945        C946   1.434       .  A
C946        N947   1.438       .  S
N947        H951   1.045       .  S
N947        H952   1.039       .  S
N950        H953   1.046       .  S
N950        H954   1.046       .  S
C955        C956   1.417       .  A
C955        C960   1.435       .  A
C955        H962   1.083       .  S
C956        C957   1.412       .  A
C957        C958   1.383       .  A
C957        N964   1.435       .  S
C958        C959   1.402       .  A
C958        H963   1.054       .  S
C959        C960   1.424       .  A
C960        N961   1.436       .  S
N961        H965   1.045       .  S
N961        H966   1.045       .  S
N964        H967   1.044       .  S
N964        H968   1.046       .  S
C969        C970   1.391       .  A
C969        C974   1.393       .  A
C969        H976   1.084       .  S
C970        C971   1.409       .  A
C971        C972   1.402       .  A
C971        N978   1.440       .  S
C972        C973   1.417       .  A
C972        H977   1.081       .  S
C973        C974   1.442       .  A
C974        N975   1.439       .  S
N975        H979   1.045       .  S
N975        H980   1.032       .  S
N978        H981   1.042       .  S
N978        H982   1.046       .  S
C983        C984   1.408       .  A
C983        C988   1.394       .  A
C983        H990   1.084       .  S
C984        C985   1.402       .  A
C985        C986   1.383       .  A
C985        N992   1.434       .  S
C986        C987   1.412       .  A
C986        H991   1.077       .  S
C987        C988   1.420       .  A
C988        N989   1.433       .  S
N989        H993   1.045       .  S
N989        H994   1.046       .  S
N992        H995   1.046       .  S
N992        H996   1.043       .  S
C997        C998   1.395       .  A
C997       C1002   1.401       .  A
C997       H1004   1.084       .  S
C998        C999   1.411       .  A
C999       C1000   1.394       .  A
C999       N1006   1.440       .  S
C1000      C1001   1.414       .  A
C1000      H1005   1.077       .  S
C1001      C1002   1.442       .  A
C1002      N1003   1.440       .  S
N1003      H1007   1.035       .  S
N1003      H1008   1.043       .  S
N1006      H1009   1.046       .  S
N1006      H1010   1.045       .  S
C1011      C1012   1.406       .  A
C1011      C1016   1.411       .  A
C1011      H1018   1.083       .  S
C1012      C1013   1.410       .  A
C1013      C1014   1.402       .  A
C1013      N1020   1.437       .  S
C1014      C1015   1.400       .  A
C1014      H1019   1.056       .  S
C1015      C1016   1.420       .  A
C1016      N1017   1.436       .  S
N1017      H1021   1.045       .  S
N1017      H1022   1.045       .  S
N1020      H1023   1.046       .  S
N1020      H1024   1.046       .  S
C1025      C1026   1.419       .  A
C1025      C1030   1.405       .  A
C1025      H1032   1.082       .  S
C1026      C1027   1.431       .  A
C1027      C1028   1.383       .  A
C1027      N1034   1.419       .  S
C1028      C1029   1.379       .  A
C1028      H1033   1.085       .  S
C1029      C1030   1.415       .  A
C1030      N1031   1.432       .  S
N1031      H1035   1.045       .  S
N1031      H1036   1.045       .  S
N1034      H1037   1.045       .  S
N1034      H1038   1.041       .  S
