geometry optimzed in LAMMPS
_audit_creation_date              2020-11-30 
_audit_creation_method            'lammps2cif' 
_symmetry_space_group_name_H-M    'P1' 
_symmetry_Int_Tables_number       1 
_symmetry_cell_setting            triclinic 
loop_ 
_symmetry_equiv_pos_as_xyz 
  x,y,z 
_cell_length_a                    52.6992583 
_cell_length_b                    104.90453602025346 
_cell_length_c                    46.79921731433206 
_cell_angle_alpha                 89.5020830046468 
_cell_angle_beta                  117.47921857937145 
_cell_angle_gamma                 90.02699117053655 
loop_ 
_atom_site_label 
_atom_site_type_symbol 
_atom_site_fract_x 
_atom_site_fract_y 
_atom_site_fract_z 
_atom_site_charge 
C1          C  0.71840820  0.28592654  0.15003203     0.04900
C2          C  0.73080913  0.28383486  0.12965007    -0.11300
C3          C  0.72158879  0.29091803  0.10105663     0.02400
C4          C  0.69996604  0.30008430  0.09284997    -0.09800
C5          C  0.68758318  0.30219072  0.11321494     0.04900
C6          C  0.69677432  0.29509717  0.14179106    -0.09200
H7          H  0.74766939  0.27678738  0.13610816     0.10500
H8          H  0.69296904  0.30563596  0.07082406     0.08000
H9          H  0.68730395  0.29677729  0.15766228     0.07900
C10         C  0.80847092  0.28539908  0.87955810     0.04900
C11         C  0.82855012  0.29502790  0.88476721    -0.11300
C12         C  0.83906517  0.30226849  0.91291203     0.02400
C13         C  0.82952255  0.29987707  0.93583327    -0.09800
C14         C  0.80945684  0.29026840  0.93066760     0.04900
C15         C  0.79894457  0.28301309  0.90254069    -0.09200
H16         H  0.83581276  0.29693085  0.86691741     0.10500
H17         H  0.83749434  0.30555770  0.95749933     0.08000
H18         H  0.78324370  0.27563163  0.89842088     0.07900
C19         C  0.69425970  0.21445586  0.62018018     0.04900
C20         C  0.70366399  0.22161611  0.64837878    -0.11300
C21         C  0.72565442  0.23054068  0.65619437     0.02400
C22         C  0.73821985  0.23229720  0.63578058    -0.09800
C23         C  0.72881369  0.22513699  0.60760426     0.04900
C24         C  0.70687744  0.21622035  0.59986765    -0.09200
H25         H  0.69394152  0.22024583  0.66416126     0.10500
H26         H  0.75521322  0.23920135  0.64178372     0.08000
H27         H  0.69960183  0.21067988  0.57804183     0.07900
C28         C  0.83070658  0.21206228  0.40507981     0.04900
C29         C  0.81989053  0.21978266  0.37737227    -0.11300
C30         C  0.80076270  0.22970273  0.37363629     0.02400
C31         C  0.79247290  0.23190443  0.39764376    -0.09800
C32         C  0.80329481  0.22418332  0.42535616     0.04900
C33         C  0.82239126  0.21427063  0.42903925    -0.09200
H34         H  0.82631642  0.21807758  0.35880242     0.10500
H35         H  0.77760568  0.23955327  0.39472284     0.08000
H36         H  0.83073564  0.20828364  0.45047873     0.07900
N37         N  0.90886997  0.90476426  0.53742421    -0.25500
N38         N  0.90345591  0.91714902  0.53489286    -0.33400
C39         C  0.87616423  0.91903668  0.52874161     0.02800
C40         C  0.86389788  0.90729297  0.52732817     0.08800
C41         C  0.88509569  0.89842490  0.53294989    -0.04300
H42         H  0.86611754  0.92828214  0.52579799     0.09500
H43         H  0.88349320  0.88816622  0.53401528     0.10700
Cu44       Cu  0.93340552  0.93098540  0.54036721     0.44200
Cu45       Cu  0.94866761  0.89726686  0.54762374     0.42000
Cu46       Cu  0.00485900  0.92044301  0.56062693     0.43900
N47         N  0.96620075  0.94329793  0.54628490    -0.32900
N48         N  0.99248196  0.93949081  0.55380268    -0.27200
C49         C  0.00830062  0.94973611  0.55486982    -0.03300
C50         C  0.99104584  0.96041841  0.54769554     0.09000
C51         C  0.96455748  0.95603935  0.54235890     0.02800
H52         H  0.03049003  0.94938879  0.55987086     0.10400
H53         H  0.94535844  0.96164619  0.53554583     0.09500
N54         N  0.01099241  0.90080988  0.56438122    -0.34400
N55         N  0.99061172  0.89242844  0.55944623    -0.26500
C56         C  0.00171469  0.88059430  0.56381743    -0.01800
C57         C  0.03031549  0.88162932  0.57186094     0.06800
C58         C  0.03558170  0.89451724  0.57202934     0.04900
H59         H  0.98985669  0.87191055  0.56149383     0.10000
H60         H  0.05576074  0.89900818  0.57740713     0.08900
N61         N  0.52019348  0.94054488  0.47795127    -0.25500
N62         N  0.54547559  0.94414457  0.48128690    -0.33400
C63         C  0.54761977  0.95688719  0.48433197     0.02800
C64         C  0.52252732  0.96149514  0.48281450     0.08800
C65         C  0.50555449  0.95093968  0.47879370    -0.04300
H66         H  0.56634002  0.96233801  0.48814423     0.09500
H67         H  0.48446701  0.95077516  0.47735377     0.10700
Cu68       Cu  0.57675041  0.93161352  0.48352050     0.44200
Cu69       Cu  0.50773548  0.92156638  0.47431210     0.42000
Cu70       Cu  0.56211501  0.89812640  0.48221451     0.43900
N71         N  0.60573129  0.91756656  0.48706272    -0.32900
N72         N  0.60052113  0.90522288  0.48675835    -0.27200
C73         C  0.62360790  0.89865775  0.48978465    -0.03300
C74         C  0.64414306  0.90734401  0.49205976     0.09000
C75         C  0.63222753  0.91921007  0.49029952     0.02800
H76         H  0.62529300  0.88836996  0.49038041     0.10400
H77         H  0.64209311  0.92836742  0.49144028     0.09500
N78         N  0.52167056  0.89349924  0.47612265    -0.34400
N79         N  0.50184726  0.90193329  0.47300751    -0.26500
C80         C  0.47802609  0.89567962  0.46865766    -0.01800
C81         C  0.48329206  0.88277170  0.46915071     0.06800
C82         C  0.51101532  0.88168964  0.47386301     0.04900
H83         H  0.45830516  0.90020599  0.46503153     0.10000
H84         H  0.52250004  0.87298674  0.47508888     0.08900
N85         N  0.49101556  0.08236961  0.53098567    -0.25500
N86         N  0.46512009  0.07867392  0.52534858    -0.33400
C87         C  0.46281377  0.06602310  0.52044591     0.02800
C88         C  0.48843950  0.06156858  0.52315206     0.08800
C89         C  0.50590169  0.07211992  0.52981369    -0.04300
H90         H  0.44382569  0.06050821  0.51516747     0.09500
H91         H  0.52768237  0.07236323  0.53334028     0.10700
Cu92       Cu  0.43389990  0.09085828  0.52459276     0.44200
Cu93       Cu  0.50452686  0.10124492  0.53955673     0.42000
Cu94       Cu  0.45266017  0.12399327  0.54034514     0.43900
N95         N  0.40669188  0.10456452  0.52697693    -0.32900
N96         N  0.41360477  0.11672103  0.53295485    -0.27200
C97         C  0.39177424  0.12303873  0.53385965    -0.03300
C98         C  0.37025229  0.11440175  0.52814194     0.09000
C99         C  0.38027468  0.10280284  0.52388480     0.02800
H100        H  0.39175790  0.13310781  0.53866761     0.10400
H101        H  0.36938928  0.09372860  0.51931516     0.09500
N102        N  0.49308702  0.12894698  0.54715061    -0.34400
N103        N  0.51203771  0.12072644  0.54691577    -0.26500
C104        C  0.53602299  0.12706806  0.55225062    -0.01800
C105        C  0.53178580  0.13981086  0.55594806     0.06800
C106        C  0.50446621  0.14070293  0.55263183     0.04900
H107        H  0.55511870  0.12270845  0.55350904     0.10000
H108        H  0.49367100  0.14922840  0.55425214     0.08900
N109        N  0.11553561  0.11543976  0.50990680    -0.25500
N110        N  0.12297022  0.10334482  0.51729803    -0.33400
C111        C  0.15046007  0.10186873  0.52380368     0.02800
C112        C  0.16066950  0.11358112  0.52037142     0.08800
C113        C  0.13811660  0.12198819  0.51151426    -0.04300
H114        H  0.16188469  0.09287824  0.52976533     0.09500
H115        H  0.13785327  0.13202191  0.50582576     0.10700
Cu116      Cu  0.09516923  0.08918692  0.51640596     0.44200
Cu117      Cu  0.07457709  0.12230542  0.49585424     0.42000
Cu118      Cu  0.02165495  0.09860448  0.48853448     0.43900
N119        N  0.06329990  0.07662880  0.51229411    -0.32900
N120        N  0.03630678  0.08005780  0.50199357    -0.27200
C121        C  0.02106928  0.06976500  0.50206393    -0.03300
C122        C  0.03942514  0.05943683  0.51289585     0.09000
C123        C  0.06598236  0.06407019  0.51918337     0.02800
H124        H  0.99838267  0.06982447  0.49484796     0.10400
H125        H  0.08579386  0.05874107  0.52813796     0.09500
N126        N  0.01235393  0.11776647  0.47703966    -0.34400
N127        N  0.03166677  0.12641465  0.47992843    -0.26500
C128        C  0.01879317  0.13786936  0.47087534    -0.01800
C129        C  0.99011888  0.13628958  0.46188136     0.06800
C130        C  0.98667032  0.12349048  0.46606131     0.04900
H131        H  0.02956251  0.14667172  0.47102463     0.10000
H132        H  0.96705126  0.11869567  0.46172127     0.08900
C133        C  0.18275193  0.71583689  0.12223452     0.04900
C134        C  0.19321560  0.71742865  0.09984757    -0.11300
C135        C  0.21450224  0.72643842  0.10511635     0.02400
C136        C  0.22535509  0.73392859  0.13291285    -0.09800
C137        C  0.21488354  0.73238884  0.15539848     0.04900
C138        C  0.19356239  0.72333200  0.15000957    -0.09200
H139        H  0.18496550  0.71157708  0.07845288     0.10500
H140        H  0.24193227  0.74087004  0.13709290     0.08000
H141        H  0.18556432  0.72206658  0.16743899     0.07900
C142        C  0.32649695  0.71262661  0.91130762     0.04900
C143        C  0.31711006  0.72028234  0.88357951    -0.11300
C144        C  0.29550157  0.72937490  0.87659059     0.02400
C145        C  0.28328422  0.73080432  0.89741264    -0.09800
C146        C  0.29268578  0.72315476  0.92518427     0.04900
C147        C  0.31426861  0.71407137  0.93206252    -0.09200
H148        H  0.32654179  0.71915302  0.86747679     0.10500
H149        H  0.26658008  0.73783877  0.89205241     0.08000
H150        H  0.32154046  0.70814373  0.95352596     0.07900
C151        C  0.29804645  0.78868684  0.37713295     0.04900
C152        C  0.32021006  0.79750011  0.38462778    -0.11300
C153        C  0.33048860  0.80449474  0.41317644     0.02400
C154        C  0.31865163  0.80266174  0.43421326    -0.09800
C155        C  0.29651076  0.79389449  0.42680608     0.04900
C156        C  0.28619376  0.78689823  0.39825699    -0.09200
H157        H  0.32927679  0.79896513  0.36824218     0.10500
H158        H  0.32649936  0.80813465  0.45620365     0.08000
H159        H  0.26898102  0.78013134  0.39246019     0.07900
C160        C  0.21616048  0.78686780  0.65470103     0.04900
C161        C  0.22603409  0.78522488  0.63179717    -0.11300
C162        C  0.21499650  0.79282112  0.60383212     0.02400
C163        C  0.19406841  0.80202782  0.59877569    -0.09800
C164        C  0.18420748  0.80370078  0.62162683     0.04900
C165        C  0.19522154  0.79610461  0.64956541    -0.09200
H166        H  0.24237134  0.77814866  0.63583442     0.10500
H167        H  0.18569585  0.80797416  0.57726312     0.08000
H168        H  0.18771020  0.79744747  0.66735850     0.07900
N169        N  0.99385581  0.57886576  0.04543020    -0.25500
N170        N  0.96797198  0.57498621  0.03934783    -0.33400
C171        C  0.96620872  0.56231707  0.03482345     0.02800
C172        C  0.99218667  0.55805486  0.03822691     0.08800
C173        C  0.00929162  0.56872206  0.04491032    -0.04300
H174        H  0.94729860  0.55667848  0.02911956     0.09500
H175        H  0.03116365  0.56912147  0.04877625     0.10700
Cu176      Cu  0.93577307  0.58700075  0.03644287     0.44200
Cu177      Cu  0.00647960  0.59783907  0.05340135     0.42000
Cu178      Cu  0.95160403  0.62049118  0.04753476     0.43900
N179        N  0.90635872  0.60061118  0.03368399    -0.32900
N180        N  0.91200143  0.61294113  0.03766160    -0.27200
C181        C  0.88861232  0.61916498  0.03487147    -0.03300
C182        C  0.86744872  0.61027374  0.02884248     0.09000
C183        C  0.87930363  0.59863398  0.02825377     0.02800
H184        H  0.88728241  0.62934785  0.03744618     0.10400
H185        H  0.86919171  0.58939382  0.02455146     0.09500
N186        N  0.99302025  0.62556312  0.05779876    -0.34400
N187        N  0.01297899  0.61738199  0.05998692    -0.26500
C188        C  0.03724469  0.62381266  0.06698737    -0.01800
C189        C  0.03217741  0.63658155  0.06926658     0.06800
C190        C  0.00405286  0.63738937  0.06334853     0.04900
H191        H  0.05704126  0.61950065  0.07018202     0.10000
H192        H  0.99243145  0.64592295  0.06311183     0.08900
N193        N  0.60810906  0.61437133  0.99962114    -0.25500
N194        N  0.61411799  0.60204516  0.00375086    -0.33400
C195        C  0.64128407  0.60021145  0.00944537     0.02800
C196        C  0.65285080  0.61193228  0.00888666     0.08800
C197        C  0.63138872  0.62073525  0.00257510    -0.04300
H198        H  0.65161695  0.59100195  0.01309533     0.09500
H199        H  0.63238869  0.63094081  0.99973262     0.10700
Cu200      Cu  0.58501452  0.58816414  0.00022847     0.44200
Cu201      Cu  0.56807165  0.62170536  0.98883812     0.42000
Cu202      Cu  0.51344218  0.59840825  0.98021522     0.43900
N203        N  0.55280514  0.57579695  0.99547201    -0.32900
N204        N  0.52649710  0.57948110  0.98816915    -0.27200
C205        C  0.51101730  0.56917167  0.98751639    -0.03300
C206        C  0.52855794  0.55859638  0.99472049     0.09000
C207        C  0.55482421  0.56308015  0.99963842     0.02800
H208        H  0.48882128  0.56939656  0.98251112     0.10400
H209        H  0.57407584  0.55755513  0.00610546     0.09500
N210        N  0.50630961  0.61793039  0.97405091    -0.34400
N211        N  0.52611648  0.62637070  0.97725307    -0.26500
C212        C  0.51453612  0.63812812  0.97188393    -0.01800
C213        C  0.48622774  0.63697575  0.96502709     0.06800
C214        C  0.48162134  0.62410168  0.96656970     0.04900
H215        H  0.52593373  0.64684365  0.97300919     0.10000
H216        H  0.46188008  0.61954394  0.96269386     0.08900
N217        N  0.10877140  0.40376135  0.99039176    -0.25500
N218        N  0.11491021  0.41605499  0.99344419    -0.33400
C219        C  0.14157727  0.41766891  0.99722521     0.02800
C220        C  0.15257464  0.40582667  0.99651513     0.08800
C221        C  0.13138174  0.39719488  0.99215981    -0.04300
H222        H  0.15209354  0.42678085  0.00020540     0.09500
H223        H  0.13219923  0.38694885  0.99022372     0.10700
Cu224      Cu  0.08691243  0.43003646  0.99262906     0.44200
Cu225      Cu  0.06971150  0.39664628  0.98320858     0.42000
Cu226      Cu  0.01680014  0.41975541  0.97960776     0.43900
N227        N  0.05637440  0.44219902  0.99346296    -0.32900
N228        N  0.03077620  0.43848801  0.98886246    -0.27200
C229        C  0.01655149  0.44862293  0.99185487    -0.03300
C230        C  0.03412860  0.45911849  0.99862082     0.09000
C231        C  0.05914566  0.45476715  0.99948707     0.02800
H232        H  0.99516484  0.44832872  0.98955213     0.10400
H233        H  0.07807831  0.46027162  0.00444314     0.09500
N234        N  0.00906427  0.40035202  0.97216460    -0.34400
N235        N  0.02848282  0.39198382  0.97378958    -0.26500
C236        C  0.01688524  0.38028234  0.96791258    -0.01800
C237        C  0.98893072  0.38137985  0.96233912     0.06800
C238        C  0.98453071  0.39417148  0.96517830     0.04900
H239        H  0.02799949  0.37164953  0.96764674     0.10000
H240        H  0.96503497  0.39866283  0.96240373     0.08900
N241        N  0.41283103  0.40292908  0.03040011    -0.25500
N242        N  0.40738823  0.41530721  0.02780713    -0.33400
C243        C  0.38054872  0.41722711  0.02318046     0.02800
C244        C  0.36866371  0.40549694  0.02284987     0.08800
C245        C  0.38953782  0.39661071  0.02748769    -0.04300
H246        H  0.37046693  0.42646876  0.02014895     0.09500
H247        H  0.38795860  0.38635254  0.02860218     0.10700
Cu248      Cu  0.43627402  0.42902600  0.02986494     0.44200
Cu249      Cu  0.45167872  0.39537696  0.03762424     0.42000
Cu250      Cu  0.50522432  0.41829751  0.04100024     0.43900
N251        N  0.46728909  0.44113751  0.03017288    -0.32900
N252        N  0.49259626  0.43728340  0.03409456    -0.27200
C253        C  0.50736838  0.44747463  0.03232536    -0.03300
C254        C  0.49039992  0.45814491  0.02706730     0.09000
C255        C  0.46521495  0.45384169  0.02580673     0.02800
H256        H  0.52869824  0.44710990  0.03447521     0.10400
H257        H  0.44664527  0.45948264  0.02174628     0.09500
N258        N  0.51193974  0.39874879  0.04683837    -0.34400
N259        N  0.49248264  0.39045387  0.04548257    -0.26500
C260        C  0.50374921  0.37864639  0.05051555    -0.01800
C261        C  0.53149362  0.37961531  0.05522481     0.06800
C262        C  0.53611101  0.39242757  0.05278852     0.04900
H263        H  0.49261903  0.37003893  0.05097697     0.10000
H264        H  0.55559427  0.39685387  0.05536488     0.08900
C265        C  0.28772171  0.40094511  0.01113881     0.18800
C266        C  0.28324657  0.39817393  0.03779989    -0.10300
C267        C  0.25550087  0.39811261  0.03451390    -0.11200
C268        C  0.23215507  0.40082318  0.00455112     0.20400
C269        C  0.23659379  0.40339409  0.97777553    -0.13200
C270        C  0.26433746  0.40345685  0.98106201    -0.11500
C271        C  0.20385228  0.40167388  0.00164815     0.01300
C272        C  0.18031402  0.40317413  0.99929854    -0.31500
C273        C  0.31633630  0.40180317  0.01497469     0.02700
C274        C  0.34029817  0.40314909  0.01849442    -0.33200
H275        H  0.30120907  0.39628176  0.06119303     0.13800
H276        H  0.25229689  0.39618625  0.05540166     0.13600
H277        H  0.21868339  0.40557464  0.95454393     0.13400
H278        H  0.26758961  0.40567312  0.96033487     0.12500
C279        C  0.51295427  0.52127818  0.00556597     0.18800
C280        C  0.48713916  0.51709908  0.00410873    -0.10300
C281        C  0.48332898  0.50418481  0.00868462    -0.11200
C282        C  0.50531675  0.49540661  0.01474228     0.20400
C283        C  0.53113557  0.49958838  0.01622539    -0.13200
C284        C  0.53494512  0.51250038  0.01165020    -0.11500
C285        C  0.50129786  0.48212988  0.01937028     0.01300
C286        C  0.49703627  0.47109587  0.02304337    -0.31500
C287        C  0.51704342  0.53455803  0.00103943     0.02700
C288        C  0.52153754  0.54560189  0.99776292    -0.33200
H289        H  0.47001671  0.52380829  0.99946586     0.13800
H290        H  0.46327772  0.50104575  0.00750076     0.13600
H291        H  0.54827145  0.49288218  0.02090412     0.13400
H292        H  0.55500962  0.51563975  0.01287111     0.12500
C293        C  0.01873294  0.49578210  0.01484550     0.18800
C294        C  0.04078814  0.50472855  0.02375575    -0.10300
C295        C  0.03605367  0.51741296  0.02903818    -0.11200
C296        C  0.00924353  0.52120541  0.02543938     0.20400
C297        C  0.98720637  0.51225090  0.01660264    -0.13200
C298        C  0.99194091  0.49956630  0.01131972    -0.11500
C299        C  0.00423546  0.53428118  0.03054803     0.01300
C300        C  0.99933364  0.54518620  0.03437347    -0.31500
C301        C  0.02357376  0.48276169  0.00913368     0.02700
C302        C  0.02803543  0.47192308  0.00428797    -0.33200
H303        H  0.06158524  0.50190646  0.02653359     0.13800
H304        H  0.05323395  0.52425574  0.03583410     0.13600
H305        H  0.96638125  0.51508081  0.01372487     0.13400
H306        H  0.97473398  0.49273144  0.00442396     0.12500
C307        C  0.73256422  0.61548801  0.01614383     0.18800
C308        C  0.75666981  0.61770593  0.04567451    -0.10300
C309        C  0.78403130  0.61731522  0.04781387    -0.11200
C310        C  0.78739647  0.61470013  0.02043442     0.20400
C311        C  0.76327166  0.61258639  0.99085396    -0.13200
C312        C  0.73592065  0.61297911  0.98871436    -0.11500
C313        C  0.81560217  0.61376157  0.02293221     0.01300
C314        C  0.83926679  0.61247973  0.02539586    -0.31500
C315        C  0.70449825  0.61521828  0.01418154     0.02700
C316        C  0.68090287  0.61421074  0.01205766    -0.33200
H317        H  0.75433756  0.61957587  0.06707921     0.13800
H318        H  0.80254559  0.61890246  0.07083985     0.13600
H319        H  0.76562403  0.61049384  0.96956314     0.13400
H320        H  0.71744089  0.61117142  0.96580387     0.12500
C321        C  0.24445472  0.79071590  0.53717173     0.18800
C322        C  0.22514287  0.79194020  0.50436520    -0.10300
C323        C  0.23514130  0.79208642  0.48137863    -0.11200
C324        C  0.26450336  0.79100764  0.49110691     0.20400
C325        C  0.28380378  0.78975496  0.52390685    -0.13200
C326        C  0.27380778  0.78960789  0.54688739    -0.11500
C327        C  0.27492495  0.79148401  0.46758325     0.01300
C328        C  0.28430507  0.79228782  0.44850585    -0.31500
C329        C  0.23423024  0.79089815  0.56087502     0.02700
C330        C  0.22557920  0.79147608  0.58061480    -0.33200
H331        H  0.20240901  0.79286093  0.49658910     0.13800
H332        H  0.22003928  0.79311748  0.45610210     0.13600
H333        H  0.30656662  0.78897282  0.53171465     0.13400
H334        H  0.28894180  0.78871349  0.57218783     0.12500
C335        C  0.42823834  0.66573039  0.94581056     0.18800
C336        C  0.40804805  0.66489786  0.95737775    -0.10300
C337        C  0.38787549  0.67463116  0.95054245    -0.11200
C338        C  0.38778420  0.68524426  0.93210761     0.20400
C339        C  0.40807781  0.68611686  0.92068966    -0.13200
C340        C  0.42826249  0.67637936  0.92753110    -0.11500
C341        C  0.36664386  0.69512766  0.92462251     0.01300
C342        C  0.34852114  0.70320351  0.91842007    -0.31500
C343        C  0.44876201  0.65562604  0.95252519     0.02700
C344        C  0.46585082  0.64711864  0.95816215    -0.33200
H345        H  0.40783448  0.65671466  0.97154420     0.13800
H346        H  0.37228241  0.67385550  0.95949192     0.13600
H347        H  0.40820607  0.69427667  0.90641116     0.13400
H348        H  0.44378583  0.67712651  0.91847766     0.12500
C349        C  0.24786652  0.76568651  0.73779670     0.18800
C350        C  0.26832406  0.75607946  0.74423684    -0.10300
C351        C  0.27830813  0.74885714  0.77268472    -0.11200
C352        C  0.26789177  0.75120715  0.79482294     0.20400
C353        C  0.24756973  0.76086540  0.78846156    -0.13200
C354        C  0.23759183  0.76808393  0.76002993    -0.11500
C355        C  0.27776800  0.74362935  0.82384279     0.01300
C356        C  0.28584105  0.73719221  0.84797798    -0.31500
C357        C  0.23718707  0.77300815  0.70831041     0.02700
C358        C  0.22777748  0.77923608  0.68373901    -0.33200
H359        H  0.27643184  0.75414109  0.72723825     0.13800
H360        H  0.29402290  0.74141280  0.77734068     0.13600
H361        H  0.23935797  0.76276925  0.80538296     0.13400
H362        H  0.22178082  0.77548895  0.75531617     0.12500
C363        C  0.08723678  0.66655547  0.08961285     0.18800
C364        C  0.09466881  0.67126411  0.06637105    -0.10300
C365        C  0.11323216  0.68164319  0.07341808    -0.11200
C366        C  0.12445662  0.68738001  0.10373617     0.20400
C367        C  0.11691713  0.68271461  0.12692497    -0.13200
C368        C  0.09834742  0.67233327  0.11987562    -0.11500
C369        C  0.14424236  0.69781850  0.11121949     0.01300
C370        C  0.16145780  0.70624369  0.11682692    -0.31500
C371        C  0.06819740  0.65583330  0.08241210     0.02700
C372        C  0.05200707  0.64695416  0.07641448    -0.33200
H373        H  0.08619954  0.66689254  0.04288053     0.13800
H374        H  0.11896028  0.68514439  0.05531828     0.13600
H375        H  0.12550777  0.68704739  0.15046842     0.13400
H376        H  0.09273326  0.66878990  0.13802802     0.12500
C377        C  0.24631740  0.75372867  0.23737582     0.18800
C378        C  0.27012495  0.76163157  0.24577417    -0.10300
C379        C  0.28063847  0.76882446  0.27398445    -0.11200
C380        C  0.26740646  0.76815296  0.29395807     0.20400
C381        C  0.24359015  0.76026100  0.28553986    -0.13200
C382        C  0.23308171  0.75307132  0.25734319    -0.11500
C383        C  0.27830291  0.77548821  0.32312871     0.01300
C384        C  0.28734079  0.78153607  0.34769141    -0.31500
C385        C  0.23546742  0.74629227  0.20835438     0.02700
C386        C  0.22617578  0.74000113  0.18415433    -0.33200
H387        H  0.28055140  0.76222357  0.23055100     0.13800
H388        H  0.29907113  0.77488470  0.28023346     0.13600
H389        H  0.23318201  0.75965424  0.30078110     0.13400
H390        H  0.21467169  0.74699980  0.25112935     0.12500
C391        C  0.26101326  0.72650467  0.98971304     0.18800
C392        C  0.27329281  0.73529614  0.01480103    -0.10300
C393        C  0.26411981  0.73589340  0.03846775    -0.11200
C394        C  0.24261731  0.72769403  0.03715960     0.20400
C395        C  0.23020954  0.71896089  0.01195019    -0.13200
C396        C  0.23938121  0.71836290  0.98829593    -0.11500
C397        C  0.23354748  0.72804188  0.06186266     0.01300
C398        C  0.22535502  0.72772105  0.08205511    -0.31500
C399        C  0.27114966  0.72560641  0.96598268     0.02700
C400        C  0.28046421  0.72463146  0.94688768    -0.33200
H401        H  0.29009778  0.74161160  0.01620213     0.13800
H402        H  0.27390446  0.74266737  0.05785692     0.13600
H403        H  0.21359800  0.71255700  0.01071461     0.13400
H404        H  0.22978708  0.71149980  0.96908774     0.12500
C405        C  0.23916322  0.11876643  0.52521381     0.18800
C406        C  0.26405020  0.11829811  0.55480206    -0.10300
C407        C  0.29091410  0.11841927  0.55561037    -0.11200
C408        C  0.29297189  0.11900761  0.52682465     0.20400
C409        C  0.26809146  0.11971269  0.49727544    -0.13200
C410        C  0.24123915  0.11959210  0.49646736    -0.11500
C411        C  0.32048098  0.11819052  0.52749000     0.01300
C412        C  0.34330826  0.11679934  0.52781670    -0.31500
C413        C  0.21154606  0.11772424  0.52420269     0.02700
C414        C  0.18834261  0.11616788  0.52279901    -0.33200
H415        H  0.26268011  0.11759797  0.57716402     0.13800
H416        H  0.31002074  0.11780975  0.57858181     0.13600
H417        H  0.26944418  0.12010847  0.47487184     0.13400
H418        H  0.22212945  0.11989807  0.47345433     0.12500
C419        C  0.50261407  0.02443528  0.50885842     0.18800
C420        C  0.47939889  0.01761477  0.48583674    -0.10300
C421        C  0.48268250  0.00479602  0.48011038    -0.11200
C422        C  0.50920826  0.99871645  0.49739035     0.20400
C423        C  0.53242664  0.00553288  0.52043106    -0.13200
C424        C  0.52914223  0.01835499  0.52615907    -0.11500
C425        C  0.51269377  0.98552197  0.49148138     0.01300
C426        C  0.51648263  0.97451615  0.48708279    -0.31500
C427        C  0.49906849  0.03763094  0.51470632     0.02700
C428        C  0.49499388  0.04861773  0.51895457    -0.33200
H429        H  0.45877517  0.02220543  0.47232878     0.13800
H430        H  0.46457724  0.99963763  0.46223809     0.13600
H431        H  0.55304636  0.00093909  0.53394117     0.13400
H432        H  0.54724275  0.02351429  0.54403557     0.12500
C433        C  0.42804969  0.85315437  0.45189221     0.18800
C434        C  0.39923766  0.85534511  0.44352166    -0.10300
C435        C  0.38024147  0.84511693  0.43566587    -0.11200
C436        C  0.38994236  0.83264755  0.43610293     0.20400
C437        C  0.41881145  0.83043311  0.44473011    -0.13200
C438        C  0.43782831  0.84067194  0.45259597    -0.11500
C439        C  0.37013937  0.82220192  0.42762141     0.01300
C440        C  0.35254996  0.81387546  0.42065665    -0.31500
C441        C  0.44738512  0.86372785  0.45896232     0.02700
C442        C  0.46360167  0.87252239  0.46402538    -0.33200
H443        H  0.39143366  0.86495246  0.44285281     0.13800
H444        H  0.35797476  0.84693304  0.42909523     0.13600
H445        H  0.42655877  0.82082893  0.44521387     0.13400
H446        H  0.46006410  0.83887204  0.45899444     0.12500
C447        C  0.02112834  0.02265922  0.52610446     0.18800
C448        C  0.04168822  0.01547222  0.55170524    -0.10300
C449        C  0.03599119  0.00283172  0.55661114    -0.11200
C450        C  0.00970091  0.99730427  0.53593801     0.20400
C451        C  0.98912095  0.00449715  0.51035817    -0.13200
C452        C  0.99481867  0.01713880  0.50545156    -0.11500
C453        C  0.00384503  0.98426438  0.54084952     0.01300
C454        C  0.99844600  0.97336008  0.54440050    -0.31500
C455        C  0.02708918  0.03566386  0.52104914     0.02700
C456        C  0.03247304  0.04652752  0.51713831    -0.33200
H457        H  0.06210590  0.01963369  0.56783053     0.13800
H458        H  0.05207098  0.99737290  0.57646373     0.13600
H459        H  0.96871564  0.00033091  0.49420996     0.13400
H460        H  0.97875298  0.02259397  0.48557635     0.12500
C461        C  0.72571387  0.90309385  0.50515219     0.18800
C462        C  0.74606997  0.91110547  0.52810219    -0.10300
C463        C  0.77419139  0.91119475  0.53256844    -0.11200
C464        C  0.78218235  0.90326931  0.51411559     0.20400
C465        C  0.76190250  0.89516428  0.49131030    -0.13200
C466        C  0.73371017  0.89507585  0.48683043    -0.11500
C467        C  0.81099725  0.90377811  0.51818213     0.01300
C468        C  0.83518284  0.90496329  0.52213367    -0.31500
C469        C  0.69653616  0.90349589  0.49989695     0.02700
C470        C  0.67240660  0.90475481  0.49607677    -0.33200
H471        H  0.74012570  0.91738132  0.54231921     0.13800
H472        H  0.78963478  0.91752930  0.55019186     0.13600
H473        H  0.76780411  0.88901972  0.47682722     0.13400
H474        H  0.71813630  0.88887365  0.46892587     0.12500
C475        C  0.12646026  0.83230120  0.60534434     0.18800
C476        C  0.10685997  0.83204735  0.61781043    -0.10300
C477        C  0.08746362  0.84211077  0.61122962    -0.11200
C478        C  0.08758591  0.85246683  0.59216507     0.20400
C479        C  0.10725719  0.85273339  0.57980294    -0.13200
C480        C  0.12663896  0.84267632  0.58637769    -0.11500
C481        C  0.06745758  0.86277323  0.58511510     0.01300
C482        C  0.05054144  0.87138957  0.57905998    -0.31500
C483        C  0.14634072  0.82193819  0.61184282     0.02700
C484        C  0.16335290  0.81346977  0.61665989    -0.33200
H485        H  0.10653805  0.82407877  0.63251509     0.13800
H486        H  0.07235086  0.84180390  0.62092176     0.13600
H487        H  0.10755771  0.86068690  0.56504483     0.13400
H488        H  0.14171034  0.84297542  0.57662499     0.12500
C489        C  0.92938375  0.16423685  0.43495450     0.18800
C490        C  0.93802448  0.17692283  0.44253030    -0.10300
C491        C  0.91758917  0.18656819  0.43517523    -0.11200
C492        C  0.88841424  0.18358010  0.42020493     0.20400
C493        C  0.87973860  0.17090440  0.41240314    -0.13200
C494        C  0.90019241  0.16125010  0.41976435    -0.11500
C495        C  0.86751868  0.19349282  0.41361234     0.01300
C496        C  0.85051572  0.20192203  0.40916274    -0.31500
C497        C  0.95051305  0.15428949  0.44347087     0.02700
C498        C  0.96849288  0.14604539  0.45147481    -0.33200
H499        H  0.96053176  0.17933659  0.45434078     0.13800
H500        H  0.92453444  0.19633198  0.44138939     0.13600
H501        H  0.85723639  0.16848245  0.40089977     0.13400
H502        H  0.89327434  0.15146684  0.41386500     0.12500
C503        C  0.58955105  0.16867902  0.57708790     0.18800
C504        C  0.59081550  0.17827116  0.59836838    -0.10300
C505        C  0.61157982  0.18781011  0.60713470    -0.11200
C506        C  0.63117189  0.18779724  0.59465417     0.20400
C507        C  0.62969859  0.17828796  0.57309987    -0.13200
C508        C  0.60894581  0.16875289  0.56433955    -0.11500
C509        C  0.65303182  0.19740503  0.60424469     0.01300
C510        C  0.67170251  0.20526362  0.61192953    -0.31500
C511        C  0.56885478  0.15859908  0.56895485     0.02700
C512        C  0.55189520  0.15002970  0.56274109    -0.33200
H513        H  0.57593761  0.17830859  0.60838988     0.13800
H514        H  0.61250288  0.19511884  0.62379570     0.13600
H515        H  0.64472325  0.17818873  0.56327830     0.13400
H516        H  0.60818486  0.16138664  0.54788508     0.12500
C517        C  0.77843249  0.22833450  0.49540518     0.18800
C518        C  0.79816934  0.22605873  0.52767613    -0.10300
C519        C  0.78919599  0.22617153  0.55153083    -0.11200
C520        C  0.76044624  0.22856492  0.54317830     0.20400
C521        C  0.74081264  0.23102254  0.51097359    -0.13200
C522        C  0.74977905  0.23090857  0.48713568    -0.11500
C523        C  0.75073398  0.22794618  0.56727962     0.01300
C524        C  0.74139523  0.22692011  0.58634082    -0.31500
C525        C  0.78729861  0.22750406  0.47064940     0.02700
C526        C  0.79456717  0.22626374  0.44989417    -0.33200
H527        H  0.82036115  0.22401035  0.53431007     0.13800
H528        H  0.80453030  0.22420648  0.57633656     0.13600
H529        H  0.71850637  0.23282988  0.50423746     0.13400
H530        H  0.73432301  0.23263245  0.46224990     0.12500
C531        C  0.93301438  0.35192316  0.94270384     0.18800
C532        C  0.92449552  0.34490249  0.91442885    -0.10300
C533        C  0.90573184  0.33464552  0.90801142    -0.11200
C534        C  0.89545275  0.33137472  0.92987187     0.20400
C535        C  0.90405544  0.33837028  0.95819003    -0.13200
C536        C  0.92280727  0.34862187  0.96460306    -0.11500
C537        C  0.87590001  0.32093093  0.92319887     0.01300
C538        C  0.85925435  0.31232596  0.91814578    -0.31500
C539        C  0.95228701  0.36247544  0.94933448     0.02700
C540        C  0.96872247  0.37121681  0.95515020    -0.33200
H541        H  0.93231443  0.34736628  0.89736521     0.13800
H542        H  0.89920314  0.32929785  0.88604310     0.13600
H543        H  0.89622072  0.33591845  0.97524784     0.13400
H544        H  0.92930549  0.35397474  0.98655970     0.12500
C545        C  0.77642103  0.26501110  0.79629969     0.18800
C546        C  0.77009734  0.27119862  0.76710825    -0.10300
C547        C  0.75926364  0.26427243  0.73850315    -0.11200
C548        C  0.75470375  0.25112682  0.73897777     0.20400
C549        C  0.76092412  0.24495189  0.76815318    -0.13200
C550        C  0.77175662  0.25187708  0.79675397    -0.11500
C551        C  0.74401028  0.24394889  0.70964887     0.01300
C552        C  0.73544681  0.23785991  0.68522871    -0.31500
C553        C  0.78777655  0.27211903  0.82576143     0.02700
C554        C  0.79727974  0.27812084  0.85036889    -0.33200
H555        H  0.77361606  0.28135340  0.76648295     0.13800
H556        H  0.75455482  0.26914248  0.71608974     0.13600
H557        H  0.75750431  0.23478935  0.76880206     0.13400
H558        H  0.77656278  0.24699877  0.81918504     0.12500
C559        C  0.62798132  0.33042824  0.09055683     0.18800
C560        C  0.60744692  0.33006981  0.10167404    -0.10300
C561        C  0.58781487  0.34007463  0.09427021    -0.11200
C562        C  0.58865609  0.35047219  0.07572979     0.20400
C563        C  0.60917551  0.35082262  0.06459096    -0.13200
C564        C  0.62880198  0.34081913  0.07199095    -0.11500
C565        C  0.56853667  0.36078304  0.06823398     0.01300
C566        C  0.55166043  0.36940049  0.06214928    -0.31500
C567        C  0.64840334  0.32022499  0.09844310     0.02700
C568        C  0.66597912  0.31187270  0.10514577    -0.33200
H569        H  0.60666288  0.32208787  0.11609210     0.13800
H570        H  0.57204201  0.33971687  0.10301878     0.13600
H571        H  0.61002190  0.35882253  0.05025753     0.13400
H572        H  0.64462927  0.34119614  0.06332223     0.12500
C573        C  0.76919916  0.25130994  0.29139883     0.18800
C574        C  0.75102015  0.26172644  0.28676699    -0.10300
C575        C  0.74031646  0.26882246  0.25808912    -0.11200
C576        C  0.74775629  0.26551873  0.23396487     0.20400
C577        C  0.76594157  0.25511119  0.23862781    -0.13200
C578        C  0.77663440  0.24802278  0.26727553    -0.11500
C579        C  0.73688297  0.27279720  0.20447190     0.01300
C580        C  0.72822394  0.27879591  0.17964730    -0.31500
C581        C  0.78015903  0.24393994  0.32076380     0.02700
C582        C  0.78950534  0.23754971  0.34503256    -0.33200
H583        H  0.74512888  0.26434539  0.30526706     0.13800
H584        H  0.72628130  0.27686153  0.25472914     0.13600
H585        H  0.77184127  0.25248361  0.22013814     0.13400
H586        H  0.79066480  0.23998400  0.27060827     0.12500
C587        C  0.75729001  0.28705762  0.04061570     0.18800
C588        C  0.78388421  0.29261908  0.04864123    -0.10300
C589        C  0.79499403  0.29243057  0.02668121    -0.11200
C590        C  0.77956186  0.28668125  0.99661957     0.20400
C591        C  0.75313972  0.28097338  0.98875360    -0.13200
C592        C  0.74202683  0.28116176  0.01072059    -0.11500
C593        C  0.79027618  0.28714281  0.97339261     0.01300
C594        C  0.79906112  0.28819695  0.95384868    -0.31500
C595        C  0.74518386  0.28784848  0.06250936     0.02700
C596        C  0.73461227  0.28899779  0.08034201    -0.33200
H597        H  0.79580626  0.29724711  0.07163891     0.13800
H598        H  0.81538835  0.29692319  0.03294128     0.13600
H599        H  0.74097857  0.27655388  0.96551830     0.13400
H600        H  0.72138788  0.27687798  0.00423063     0.12500
loop_ 
_geom_bond_atom_site_label_1 
_geom_bond_atom_site_label_2 
_geom_bond_distance 
_geom_bond_site_symmetry_2 
_ccdc_geom_bond_type 
C1            C2   1.401       .  A
C1            C6   1.401       .  A
C1          C580   1.438       .  S
C2            C3   1.401       .  A
C2            H7   1.085       .  S
C3            C4   1.400       .  A
C3          C596   1.438       .  S
C4            C5   1.400       .  A
C4            H8   1.085       .  S
C5            C6   1.401       .  A
C5          C568   1.438       .  S
C6            H9   1.085       .  S
C10          C11   1.402       .  A
C10          C15   1.402       .  A
C10         C554   1.439       .  S
C11          C12   1.401       .  A
C11          H16   1.085       .  S
C12          C13   1.400       .  A
C12         C538   1.438       .  S
C13          C14   1.400       .  A
C13          H17   1.085       .  S
C14          C15   1.401       .  A
C14         C594   1.438       .  S
C15          H18   1.085       .  S
C19          C20   1.402       .  A
C19          C24   1.400       .  A
C19         C510   1.440       .  S
C20          C21   1.403       .  A
C20          H25   1.084       .  S
C21          C22   1.402       .  A
C21         C552   1.440       .  S
C22          C23   1.401       .  A
C22          H26   1.085       .  S
C23          C24   1.400       .  A
C23         C524   1.439       .  S
C24          H27   1.085       .  S
C28          C29   1.401       .  A
C28          C33   1.400       .  A
C28         C496   1.439       .  S
C29          C30   1.402       .  A
C29          H34   1.085       .  S
C30          C31   1.401       .  A
C30         C582   1.439       .  S
C31          C32   1.401       .  A
C31          H35   1.085       .  S
C32          C33   1.401       .  A
C32         C526   1.439       .  S
C33          H36   1.085       .  S
N37          N38   1.323       .  A
N37          C41   1.347       .  A
N37         Cu45   2.078       .  S
N38          C39   1.345       .  A
N38         Cu44   2.072       .  S
C39          C40   1.379       .  A
C39          H42   1.082       .  S
C40          C41   1.381       .  A
C40         C468   1.439       .  S
C41          H43   1.082       .  S
Cu44         N47   2.072       .  S
Cu45         N55   2.078       .  S
Cu46         N48   2.078   1_455  S
Cu46         N54   2.078       .  S
N47          N48   1.323       .  A
N47          C51   1.345       .  A
N48          C49   1.347   1_655  A
C49          C50   1.381   1_455  A
C49          H52   1.082       .  S
C50          C51   1.379       .  A
C50         C454   1.439       .  S
C51          H53   1.082       .  S
N54          N55   1.324   1_455  A
N54          C58   1.346       .  A
N55          C56   1.346   1_655  A
C56          C57   1.379       .  A
C56          H59   1.082   1_455  S
C57          C58   1.379       .  A
C57         C482   1.438       .  S
C58          H60   1.082       .  S
N61          N62   1.323       .  A
N61          C65   1.347       .  A
N61         Cu69   2.080       .  S
N62          C63   1.345       .  A
N62         Cu68   2.073       .  S
C63          C64   1.379       .  A
C63          H66   1.082       .  S
C64          C65   1.382       .  A
C64         C426   1.439       .  S
C65          H67   1.082       .  S
Cu68         N71   2.073       .  S
Cu69         N79   2.080       .  S
Cu70         N72   2.074       .  S
Cu70         N78   2.074       .  S
N71          N72   1.322       .  A
N71          C75   1.344       .  A
N72          C73   1.347       .  A
C73          C74   1.381       .  A
C73          H76   1.082       .  S
C74          C75   1.379       .  A
C74         C470   1.438       .  S
C75          H77   1.082       .  S
N78          N79   1.324       .  A
N78          C82   1.345       .  A
N79          C80   1.347       .  A
C80          C81   1.380       .  A
C80          H83   1.082       .  S
C81          C82   1.378       .  A
C81         C442   1.437       .  S
C82          H84   1.082       .  S
N85          N86   1.323       .  A
N85          C89   1.348       .  A
N85         Cu93   2.083       .  S
N86          C87   1.345       .  A
N86         Cu92   2.071       .  S
C87          C88   1.378       .  A
C87          H90   1.082       .  S
C88          C89   1.382       .  A
C88         C428   1.439       .  S
C89          H91   1.082       .  S
Cu92         N95   2.071       .  S
Cu93        N103   2.083       .  S
Cu94         N96   2.070       .  S
Cu94        N102   2.070       .  S
N95          N96   1.323       .  A
N95          C99   1.344       .  A
N96          C97   1.346       .  A
C97          C98   1.379       .  A
C97         H100   1.082       .  S
C98          C99   1.379       .  A
C98         C412   1.435       .  S
C99         H101   1.082       .  S
N102        N103   1.324       .  A
N102        C106   1.345       .  A
N103        C104   1.347       .  A
C104        C105   1.381       .  A
C104        H107   1.082       .  S
C105        C106   1.378       .  A
C105        C512   1.438       .  S
C106        H108   1.082       .  S
N109        N110   1.323       .  A
N109        C113   1.346       .  A
N109       Cu117   2.072       .  S
N110        C111   1.345       .  A
N110       Cu116   2.073       .  S
C111        C112   1.379       .  A
C111        H114   1.082       .  S
C112        C113   1.379       .  A
C112        C414   1.435       .  S
C113        H115   1.082       .  S
Cu116       N119   2.073       .  S
Cu117       N127   2.072       .  S
Cu118       N120   2.076       .  S
Cu118       N126   2.076       .  S
N119        N120   1.323       .  A
N119        C123   1.345       .  A
N120        C121   1.346       .  A
C121        C122   1.380       .  A
C121        H124   1.082   1_455  S
C122        C123   1.380       .  A
C122        C456   1.439       .  S
C123        H125   1.082       .  S
N126        N127   1.323       .  A
N126        C130   1.345   1_455  A
N127        C128   1.346       .  A
C128        C129   1.379   1_455  A
C128        H131   1.082       .  S
C129        C130   1.379       .  A
C129        C498   1.437       .  S
C130        H132   1.082       .  S
C133        C134   1.400       .  A
C133        C138   1.402       .  A
C133        C370   1.441       .  S
C134        C135   1.400       .  A
C134        H139   1.085       .  S
C135        C136   1.403       .  A
C135        C398   1.441       .  S
C136        C137   1.404       .  A
C136        H140   1.084       .  S
C137        C138   1.404       .  A
C137        C386   1.443       .  S
C138        H141   1.084       .  S
C142        C143   1.401       .  A
C142        C147   1.401       .  A
C142        C342   1.440       .  S
C143        C144   1.402       .  A
C143        H148   1.085       .  S
C144        C145   1.403       .  A
C144        C356   1.441       .  S
C145        C146   1.402       .  A
C145        H149   1.084       .  S
C146        C147   1.401       .  A
C146        C400   1.441       .  S
C147        H150   1.085       .  S
C151        C152   1.403       .  A
C151        C156   1.403       .  A
C151        C384   1.442       .  S
C152        C153   1.402       .  A
C152        H157   1.084       .  S
C153        C154   1.400       .  A
C153        C440   1.439       .  S
C154        C155   1.400       .  A
C154        H158   1.085       .  S
C155        C156   1.402       .  A
C155        C328   1.440       .  S
C156        H159   1.084       .  S
C160        C161   1.403       .  A
C160        C165   1.402       .  A
C160        C358   1.441       .  S
C161        C162   1.402       .  A
C161        H166   1.084       .  S
C162        C163   1.400       .  A
C162        C330   1.440       .  S
C163        C164   1.400       .  A
C163        H167   1.085       .  S
C164        C165   1.401       .  A
C164        C484   1.440       .  S
C165        H168   1.085       .  S
N169        N170   1.323       .  A
N169        C173   1.347   1_655  A
N169       Cu177   2.080   1_655  S
N170        C171   1.344       .  A
N170       Cu176   2.067       .  S
C171        C172   1.378       .  A
C171        H174   1.082       .  S
C172        C173   1.381   1_655  A
C172        C300   1.437       .  S
C173        H175   1.082       .  S
Cu176       N179   2.067       .  S
Cu177       N187   2.080       .  S
Cu178       N180   2.076       .  S
Cu178       N186   2.077       .  S
N179        N180   1.322       .  A
N179        C183   1.344       .  A
N180        C181   1.347       .  A
C181        C182   1.381       .  A
C181        H184   1.082       .  S
C182        C183   1.378       .  A
C182        C314   1.437       .  S
C183        H185   1.082       .  S
N186        N187   1.324   1_655  A
N186        C190   1.345   1_655  A
N187        C188   1.347       .  A
C188        C189   1.381       .  A
C188        H191   1.082       .  S
C189        C190   1.379       .  A
C189        C372   1.439       .  S
C190        H192   1.082   1_455  S
N193        N194   1.323   1_556  A
N193        C197   1.347   1_556  A
N193       Cu201   2.076       .  S
N194        C195   1.343       .  A
N194       Cu200   2.066       .  S
C195        C196   1.378       .  A
C195        H198   1.082       .  S
C196        C197   1.381       .  A
C196        C316   1.436       .  S
C197        H199   1.082   1_554  S
Cu200       N203   2.066   1_554  S
Cu201       N211   2.077       .  S
Cu202       N204   2.075       .  S
Cu202       N210   2.076       .  S
N203        N204   1.323       .  A
N203        C207   1.344       .  A
N204        C205   1.346       .  A
C205        C206   1.380       .  A
C205        H208   1.082       .  S
C206        C207   1.378       .  A
C206        C288   1.435       .  S
C207        H209   1.082   1_556  S
N210        N211   1.324       .  A
N210        C214   1.346       .  A
N211        C212   1.346       .  A
C212        C213   1.379       .  A
C212        H215   1.082       .  S
C213        C214   1.379       .  A
C213        C344   1.437       .  S
C214        H216   1.082       .  S
N217        N218   1.322       .  A
N217        C221   1.345       .  A
N217       Cu225   2.067       .  S
N218        C219   1.344       .  A
N218       Cu224   2.069       .  S
C219        C220   1.378       .  A
C219        H222   1.082   1_556  S
C220        C221   1.379       .  A
C220        C272   1.434       .  S
C221        H223   1.082       .  S
Cu224       N227   2.069       .  S
Cu225       N235   2.067       .  S
Cu226       N228   2.076       .  S
Cu226       N234   2.076       .  S
N227        N228   1.323       .  A
N227        C231   1.344       .  A
N228        C229   1.346       .  A
C229        C230   1.380       .  A
C229        H232   1.082   1_455  S
C230        C231   1.378       .  A
C230        C302   1.436   1_556  S
C231        H233   1.082   1_556  S
N234        N235   1.323       .  A
N234        C238   1.346   1_455  A
N235        C236   1.344       .  A
C236        C237   1.377   1_455  A
C236        H239   1.082       .  S
C237        C238   1.380       .  A
C237        C540   1.435       .  S
C238        H240   1.082       .  S
N241        N242   1.322       .  A
N241        C245   1.346       .  A
N241       Cu249   2.072       .  S
N242        C243   1.343       .  A
N242       Cu248   2.065       .  S
C243        C244   1.377       .  A
C243        H246   1.082       .  S
C244        C245   1.380       .  A
C244        C274   1.434       .  S
C245        H247   1.082       .  S
Cu248       N251   2.065       .  S
Cu249       N259   2.072       .  S
Cu250       N252   2.075       .  S
Cu250       N258   2.075       .  S
N251        N252   1.323       .  A
N251        C255   1.343       .  A
N252        C253   1.346       .  A
C253        C254   1.381       .  A
C253        H256   1.082       .  S
C254        C255   1.377       .  A
C254        C286   1.435       .  S
C255        H257   1.082       .  S
N258        N259   1.324       .  A
N258        C262   1.345       .  A
N259        C260   1.345       .  A
C260        C261   1.378       .  A
C260        H263   1.082       .  S
C261        C262   1.379       .  A
C261        C566   1.435       .  S
C262        H264   1.082       .  S
C265        C266   1.401       .  A
C265        C270   1.401   1_554  A
C265        C273   1.437       .  S
C266        C267   1.398       .  A
C266        H275   1.084       .  S
C267        C268   1.401       .  A
C267        H276   1.083       .  S
C268        C269   1.401   1_554  A
C268        C271   1.437       .  S
C269        C270   1.398       .  A
C269        H277   1.084       .  S
C270        H278   1.083       .  S
C271        C272   1.204   1_554  T
C273        C274   1.204       .  T
C279        C280   1.401       .  A
C279        C284   1.401       .  A
C279        C287   1.438       .  S
C280        C281   1.399       .  A
C280        H289   1.083   1_554  S
C281        C282   1.402       .  A
C281        H290   1.084       .  S
C282        C283   1.400       .  A
C282        C285   1.438       .  S
C283        C284   1.398       .  A
C283        H291   1.083       .  S
C284        H292   1.084       .  S
C285        C286   1.205       .  T
C287        C288   1.205   1_554  T
C293        C294   1.401       .  A
C293        C298   1.401   1_455  A
C293        C301   1.439       .  S
C294        C295   1.399       .  A
C294        H303   1.083       .  S
C295        C296   1.401       .  A
C295        H304   1.083       .  S
C296        C297   1.402   1_455  A
C296        C299   1.440       .  S
C297        C298   1.399       .  A
C297        H305   1.083       .  S
C298        H306   1.083       .  S
C299        C300   1.206   1_455  T
C301        C302   1.206       .  T
C307        C308   1.401       .  A
C307        C312   1.401   1_554  A
C307        C315   1.439       .  S
C308        C309   1.399       .  A
C308        H317   1.084       .  S
C309        C310   1.402       .  A
C309        H318   1.083       .  S
C310        C311   1.401   1_554  A
C310        C313   1.440       .  S
C311        C312   1.399       .  A
C311        H319   1.084       .  S
C312        H320   1.083       .  S
C313        C314   1.206       .  T
C315        C316   1.206       .  T
C321        C322   1.401       .  A
C321        C326   1.401       .  A
C321        C329   1.440       .  S
C322        C323   1.399       .  A
C322        H331   1.084       .  S
C323        C324   1.401       .  A
C323        H332   1.083       .  S
C324        C325   1.401       .  A
C324        C327   1.440       .  S
C325        C326   1.399       .  A
C325        H333   1.084       .  S
C326        H334   1.083       .  S
C327        C328   1.206       .  T
C329        C330   1.206       .  T
C335        C336   1.401       .  A
C335        C340   1.401       .  A
C335        C343   1.440       .  S
C336        C337   1.399       .  A
C336        H345   1.083       .  S
C337        C338   1.401       .  A
C337        H346   1.084       .  S
C338        C339   1.401       .  A
C338        C341   1.440       .  S
C339        C340   1.399       .  A
C339        H347   1.083       .  S
C340        H348   1.084       .  S
C341        C342   1.206       .  T
C343        C344   1.206       .  T
C349        C350   1.402       .  A
C349        C354   1.401       .  A
C349        C357   1.441       .  S
C350        C351   1.400       .  A
C350        H359   1.083       .  S
C351        C352   1.402       .  A
C351        H360   1.084       .  S
C352        C353   1.401       .  A
C352        C355   1.441       .  S
C353        C354   1.399       .  A
C353        H361   1.083       .  S
C354        H362   1.084       .  S
C355        C356   1.207       .  T
C357        C358   1.207       .  T
C363        C364   1.401       .  A
C363        C368   1.402       .  A
C363        C371   1.442       .  S
C364        C365   1.400       .  A
C364        H373   1.083       .  S
C365        C366   1.402       .  A
C365        H374   1.084       .  S
C366        C367   1.401       .  A
C366        C369   1.441       .  S
C367        C368   1.400       .  A
C367        H375   1.083       .  S
C368        H376   1.083       .  S
C369        C370   1.207       .  T
C371        C372   1.207       .  T
C377        C378   1.402       .  A
C377        C382   1.402       .  A
C377        C385   1.443       .  S
C378        C379   1.400       .  A
C378        H387   1.083       .  S
C379        C380   1.402       .  A
C379        H388   1.083       .  S
C380        C381   1.402       .  A
C380        C383   1.442       .  S
C381        C382   1.400       .  A
C381        H389   1.083       .  S
C382        H390   1.083       .  S
C383        C384   1.207       .  T
C385        C386   1.208       .  T
C391        C392   1.402   1_556  A
C391        C396   1.401       .  A
C391        C399   1.441       .  S
C392        C393   1.400       .  A
C392        H401   1.084       .  S
C393        C394   1.401       .  A
C393        H402   1.083       .  S
C394        C395   1.402       .  A
C394        C397   1.441       .  S
C395        C396   1.399   1_554  A
C395        H403   1.084       .  S
C396        H404   1.083       .  S
C397        C398   1.207       .  T
C399        C400   1.207       .  T
C405        C406   1.401       .  A
C405        C410   1.401       .  A
C405        C413   1.438       .  S
C406        C407   1.399       .  A
C406        H415   1.084       .  S
C407        C408   1.401       .  A
C407        H416   1.083       .  S
C408        C409   1.401       .  A
C408        C411   1.438       .  S
C409        C410   1.398       .  A
C409        H417   1.084       .  S
C410        H418   1.083       .  S
C411        C412   1.205       .  T
C413        C414   1.205       .  T
C419        C420   1.402       .  A
C419        C424   1.401       .  A
C419        C427   1.442       .  S
C420        C421   1.400       .  A
C420        H429   1.083       .  S
C421        C422   1.401   1_545  A
C421        H430   1.083   1_545  S
C422        C423   1.402   1_565  A
C422        C425   1.442       .  S
C423        C424   1.400       .  A
C423        H431   1.083       .  S
C424        H432   1.083       .  S
C425        C426   1.207       .  T
C427        C428   1.207       .  T
C433        C434   1.401       .  A
C433        C438   1.402       .  A
C433        C441   1.440       .  S
C434        C435   1.398       .  A
C434        H443   1.083       .  S
C435        C436   1.401       .  A
C435        H444   1.084       .  S
C436        C437   1.401       .  A
C436        C439   1.439       .  S
C437        C438   1.400       .  A
C437        H445   1.083       .  S
C438        H446   1.083       .  S
C439        C440   1.206       .  T
C441        C442   1.206       .  T
C447        C448   1.402       .  A
C447        C452   1.402   1_455  A
C447        C455   1.442       .  S
C448        C449   1.400       .  A
C448        H457   1.083       .  S
C449        C450   1.401   1_545  A
C449        H458   1.083   1_545  S
C450        C451   1.402   1_465  A
C450        C453   1.442       .  S
C451        C452   1.400       .  A
C451        H459   1.083       .  S
C452        H460   1.083       .  S
C453        C454   1.207   1_455  T
C455        C456   1.207       .  T
C461        C462   1.401       .  A
C461        C466   1.402       .  A
C461        C469   1.441       .  S
C462        C463   1.398       .  A
C462        H471   1.084       .  S
C463        C464   1.401       .  A
C463        H472   1.083       .  S
C464        C465   1.402       .  A
C464        C467   1.442       .  S
C465        C466   1.401       .  A
C465        H473   1.083       .  S
C466        H474   1.083       .  S
C467        C468   1.207       .  T
C469        C470   1.207       .  T
C475        C476   1.401       .  A
C475        C480   1.401       .  A
C475        C483   1.440       .  S
C476        C477   1.400       .  A
C476        H485   1.083       .  S
C477        C478   1.402       .  A
C477        H486   1.084       .  S
C478        C479   1.401       .  A
C478        C481   1.440       .  S
C479        C480   1.399       .  A
C479        H487   1.083       .  S
C480        H488   1.084       .  S
C481        C482   1.206       .  T
C483        C484   1.206       .  T
C489        C490   1.401       .  A
C489        C494   1.402       .  A
C489        C497   1.439       .  S
C490        C491   1.398       .  A
C490        H499   1.083       .  S
C491        C492   1.401       .  A
C491        H500   1.084       .  S
C492        C493   1.402       .  A
C492        C495   1.439       .  S
C493        C494   1.399       .  A
C493        H501   1.083       .  S
C494        H502   1.084       .  S
C495        C496   1.206       .  T
C497        C498   1.206       .  T
C503        C504   1.402       .  A
C503        C508   1.401       .  A
C503        C511   1.441       .  S
C504        C505   1.400       .  A
C504        H513   1.084       .  S
C505        C506   1.401       .  A
C505        H514   1.083       .  S
C506        C507   1.401       .  A
C506        C509   1.440       .  S
C507        C508   1.399       .  A
C507        H515   1.084       .  S
C508        H516   1.083       .  S
C509        C510   1.206       .  T
C511        C512   1.206       .  T
C517        C518   1.401       .  A
C517        C522   1.401       .  A
C517        C525   1.439       .  S
C518        C519   1.399       .  A
C518        H527   1.084       .  S
C519        C520   1.401       .  A
C519        H528   1.083       .  S
C520        C521   1.401       .  A
C520        C523   1.439       .  S
C521        C522   1.398       .  A
C521        H529   1.084       .  S
C522        H530   1.083       .  S
C523        C524   1.205       .  T
C525        C526   1.205       .  T
C531        C532   1.401       .  A
C531        C536   1.401       .  A
C531        C539   1.438       .  S
C532        C533   1.399       .  A
C532        H541   1.084       .  S
C533        C534   1.401       .  A
C533        H542   1.083       .  S
C534        C535   1.401       .  A
C534        C537   1.438       .  S
C535        C536   1.398       .  A
C535        H543   1.084       .  S
C536        H544   1.083       .  S
C537        C538   1.205       .  T
C539        C540   1.205       .  T
C545        C546   1.401       .  A
C545        C550   1.401       .  A
C545        C553   1.439       .  S
C546        C547   1.399       .  A
C546        H555   1.084       .  S
C547        C548   1.401       .  A
C547        H556   1.083       .  S
C548        C549   1.401       .  A
C548        C551   1.440       .  S
C549        C550   1.399       .  A
C549        H557   1.084       .  S
C550        H558   1.083       .  S
C551        C552   1.206       .  T
C553        C554   1.206       .  T
C559        C560   1.401       .  A
C559        C564   1.401       .  A
C559        C567   1.438       .  S
C560        C561   1.399       .  A
C560        H569   1.084       .  S
C561        C562   1.401       .  A
C561        H570   1.083       .  S
C562        C563   1.401       .  A
C562        C565   1.438       .  S
C563        C564   1.398       .  A
C563        H571   1.084       .  S
C564        H572   1.083       .  S
C565        C566   1.205       .  T
C567        C568   1.205       .  T
C573        C574   1.401       .  A
C573        C578   1.401       .  A
C573        C581   1.439       .  S
C574        C575   1.399       .  A
C574        H583   1.083       .  S
C575        C576   1.401       .  A
C575        H584   1.083       .  S
C576        C577   1.401       .  A
C576        C579   1.438       .  S
C577        C578   1.398       .  A
C577        H585   1.083       .  S
C578        H586   1.084       .  S
C579        C580   1.205       .  T
C581        C582   1.205       .  T
C587        C588   1.401       .  A
C587        C592   1.401       .  A
C587        C595   1.438       .  S
C588        C589   1.398       .  A
C588        H597   1.083       .  S
C589        C590   1.401   1_554  A
C589        H598   1.084       .  S
C590        C591   1.401       .  A
C590        C593   1.438       .  S
C591        C592   1.399   1_556  A
C591        H599   1.083       .  S
C592        H600   1.084       .  S
C593        C594   1.205       .  T
C595        C596   1.205       .  T
