geometry optimzed in LAMMPS
_audit_creation_date              2020-11-30 
_audit_creation_method            'lammps2cif' 
_symmetry_space_group_name_H-M    'P1' 
_symmetry_Int_Tables_number       1 
_symmetry_cell_setting            triclinic 
loop_ 
_symmetry_equiv_pos_as_xyz 
  x,y,z 
_cell_length_a                    34.73809387857998 
_cell_length_b                    34.83164791676547 
_cell_length_c                    34.86712190770692 
_cell_angle_alpha                 90.67388837322267 
_cell_angle_beta                  90.54417415286001 
_cell_angle_gamma                 89.44517211374828 
loop_ 
_atom_site_label 
_atom_site_type_symbol 
_atom_site_fract_x 
_atom_site_fract_y 
_atom_site_fract_z 
_atom_site_charge 
O1          O  0.21690042  0.44552062  0.00164111    -0.71860
O2          O  0.20839154  0.55423057  0.00003661    -0.72070
O3          O  0.20973376  0.49836820  0.94647715    -0.71930
O4          O  0.21722997  0.50158254  0.05522878    -0.71940
O5          O  0.27960669  0.50032568  0.05104918    -0.71900
O6          O  0.27119929  0.50724366  0.94323163    -0.71920
O7          O  0.27078365  0.55821181  0.00164621    -0.71860
O8          O  0.27836099  0.44942259  0.99299348    -0.72050
V9          V  0.21418409  0.49995582  0.00074936     1.35240
V10         V  0.27383130  0.50374472  0.99720692     1.35170
C11         C  0.24899819  0.42871460  0.99739509     0.77380
C12         C  0.23810320  0.57471450  0.00183077     0.77440
C13         C  0.23926065  0.50324461  0.92619057     0.77310
C14         C  0.24995341  0.50104961  0.07156801     0.77270
C15         C  0.23507566  0.50141386  0.75618077    -0.02560
O16         O  0.72342319  0.49240455  0.05251978    -0.71860
O17         O  0.72228372  0.49696647  0.94381543    -0.72070
O18         O  0.72849348  0.44027103  0.99504629    -0.71930
O19         O  0.71800773  0.54879285  0.00128294    -0.71940
O20         O  0.78033666  0.55330943  0.00026699    -0.71900
O21         O  0.79081135  0.44537610  0.99708223    -0.71920
O22         O  0.78447326  0.50063321  0.94445636    -0.71860
O23         O  0.78573233  0.49818892  0.05302462    -0.72050
V24         V  0.72422082  0.49456984  0.99825481     1.35240
V25         V  0.78409195  0.49929318  0.99870911     1.35170
C26         C  0.75464604  0.49503036  0.07113999     0.77380
C27         C  0.75323547  0.49981475  0.92541971     0.77440
C28         C  0.76147356  0.42449964  0.99481828     0.77310
C29         C  0.74768865  0.56947672  0.00117969     0.77270
C30         C  0.76095668  0.49715650  0.75627761    -0.02560
O31         O  0.05143600  0.50442923  0.69996550    -0.71860
O32         O  0.94281509  0.50283227  0.69461008    -0.72070
O33         O  0.99636997  0.55846524  0.69967061    -0.71930
O34         O  0.99840514  0.44855090  0.69696434    -0.71940
O35         O  0.99629178  0.44881452  0.75925157    -0.71900
O36         O  0.99282059  0.55677792  0.76182107    -0.71920
O37         O  0.94033362  0.50086437  0.75686484    -0.71860
O38         O  0.04937627  0.50380974  0.76229256    -0.72050
V39         V  0.99716103  0.50359958  0.69894878     1.35240
V40         V  0.99478391  0.50273786  0.75879094     1.35170
C41         C  0.06882458  0.50430138  0.73178964     0.77380
C42         C  0.92321103  0.50042548  0.72467065     0.77440
C43         C  0.99448920  0.57612515  0.73163428     0.77310
C44         C  0.99733967  0.43016164  0.72815185     0.77270
O45         O  0.00126659  0.55315587  0.21197197    -0.71860
O46         O  0.99524982  0.44461098  0.20814792    -0.72070
O47         O  0.94360704  0.50244892  0.21004746    -0.71930
O48         O  0.05313129  0.49546684  0.21165189    -0.71940
O49         O  0.05266817  0.49852433  0.27371327    -0.71900
O50         O  0.94389543  0.49563101  0.27194936    -0.71920
O51         O  0.00025067  0.44289105  0.27032729    -0.71860
O52         O  0.99633237  0.55138190  0.27377354    -0.72050
V53         V  0.99833905  0.49884614  0.21154653     1.35240
V54         V  0.99822571  0.49720772  0.27125721     1.35170
C55         C  0.99913642  0.57098458  0.24354585     0.77380
C56         C  0.99765828  0.42534381  0.23849118     0.77440
C57         C  0.92523094  0.49947729  0.24103639     0.77310
C58         C  0.07173492  0.49642483  0.24318670     0.77270
C59         C  0.75515004  0.49924222  0.23964983    -0.02560
C60         C  0.24274212  0.49306185  0.23824110    -0.02560
O61         O  0.50338406  0.72636356  0.05608298    -0.71860
O62         O  0.49944862  0.72567388  0.94796184    -0.72070
O63         O  0.55572626  0.72590685  0.00038936    -0.71930
O64         O  0.44731150  0.72674967  0.00355129    -0.71940
O65         O  0.44597927  0.78859636  0.99806773    -0.71900
O66         O  0.55564774  0.78804853  0.00685576    -0.71920
O67         O  0.50502288  0.78776047  0.94799063    -0.71860
O68         O  0.49663030  0.78849252  0.05670929    -0.72050
V69         V  0.50143486  0.72739686  0.00203712     1.35240
V70         V  0.50088788  0.78721648  0.00239859     1.35170
C71         C  0.49920088  0.75729233  0.07477568     0.77380
C72         C  0.50280917  0.75635613  0.92950949     0.77440
C73         C  0.57426491  0.75676049  0.00379802     0.77310
C74         C  0.42779547  0.75742208  0.00036849     0.77270
C75         C  0.49933365  0.75509209  0.76034421    -0.02560
O76         O  0.50183249  0.05247051  0.72023200    -0.71860
O77         O  0.50371193  0.94307448  0.71659675    -0.72070
O78         O  0.44784081  0.99714509  0.71917566    -0.71930
O79         O  0.55719125  0.99812968  0.71773578    -0.71940
O80         O  0.55894428  0.99156894  0.77935838    -0.71900
O81         O  0.44938017  0.00120675  0.78138230    -0.71920
O82         O  0.49978892  0.94237597  0.77877356    -0.71860
O83         O  0.50858546  0.04990746  0.78191404    -0.72050
V84         V  0.50263514  0.99768565  0.71951425     1.35240
V85         V  0.50412719  0.99629418  0.77918071     1.35170
C86         C  0.50569981  0.06985354  0.75210148     0.77380
C87         C  0.50138087  0.92427498  0.74727823     0.77440
C88         C  0.42991052  0.99978082  0.75054370     0.77310
C89         C  0.57696658  0.99412268  0.74808288     0.77270
O90         O  0.55586903  0.21861532  0.00016292    -0.71860
O91         O  0.44693908  0.21794333  0.99935294    -0.72070
O92         O  0.50077734  0.22341707  0.94535868    -0.71930
O93         O  0.50125936  0.21406120  0.05423463    -0.71940
O94         O  0.49819549  0.27626544  0.05951893    -0.71900
O95         O  0.50253999  0.28556226  0.95131517    -0.71920
O96         O  0.44574407  0.28034888  0.00229188    -0.71860
O97         O  0.55437441  0.28036285  0.00818880    -0.72050
V98         V  0.50124303  0.21966215  0.99984038     1.35240
V99         V  0.50021945  0.27939871  0.00528361     1.35170
C100        C  0.57384716  0.24964015  0.00485972     0.77380
C101        C  0.42792965  0.24896363  0.99984992     0.77440
C102        C  0.50157190  0.25615675  0.92990516     0.77310
C103        C  0.49955311  0.24384546  0.07533248     0.77270
C104        C  0.50134497  0.23959028  0.76238683    -0.02560
O105        O  0.45170199  0.99684637  0.21313571    -0.71860
O106        O  0.56063600  0.99680229  0.22123265    -0.72070
O107        O  0.50694665  0.94226238  0.21711297    -0.71930
O108        O  0.50616164  0.05144656  0.21733436    -0.71940
O109        O  0.50167306  0.05197623  0.27946900    -0.71900
O110        O  0.50242086  0.94284344  0.27924816    -0.71920
O111        O  0.55658684  0.99684946  0.28343181    -0.71860
O112        O  0.44793758  0.99700694  0.27534574    -0.72050
V113        V  0.50623058  0.99684807  0.21839095     1.35240
V114        V  0.50228164  0.99727285  0.27814956     1.35170
C115        C  0.43137007  0.99624816  0.24298833     0.77380
C116        C  0.57702858  0.99642308  0.25369449     0.77440
C117        C  0.50485207  0.92403297  0.24816038     0.77310
C118        C  0.50401983  0.07028801  0.24846715     0.77270
C119        C  0.49634173  0.75433234  0.24371092    -0.02560
C120        C  0.50056504  0.24029061  0.24483942    -0.02560
O121        O  0.22398237  0.99328875  0.55264207    -0.71860
O122        O  0.22288841  0.99792994  0.44357876    -0.72070
O123        O  0.22397469  0.94195402  0.49519395    -0.71930
O124        O  0.22248248  0.04962146  0.50131398    -0.71940
O125        O  0.28470973  0.05089892  0.50203617    -0.71900
O126        O  0.28626704  0.94118119  0.49438332    -0.71920
O127        O  0.28521455  0.99884263  0.44389484    -0.71860
O128        O  0.28648934  0.99331462  0.55233365    -0.72050
V129        V  0.22459988  0.99572313  0.49815782     1.35240
V130        V  0.28455266  0.99603394  0.49813732     1.35170
C131        C  0.25554808  0.99301964  0.57101828     0.77380
C132        C  0.25396222  0.99887342  0.42498812     0.77440
C133        C  0.25486783  0.92291973  0.49312920     0.77310
C134        C  0.25286680  0.06897585  0.50351615     0.77270
C135        C  0.24356602  0.75349942  0.49973576    -0.02560
O136        O  0.72230596  0.05676499  0.50803097    -0.71860
O137        O  0.72209915  0.94790247  0.50776607    -0.72070
O138        O  0.72577706  0.00269997  0.56234768    -0.71930
O139        O  0.71947283  0.00261746  0.45315067    -0.71940
O140        O  0.78199568  0.00176154  0.45069598    -0.71900
O141        O  0.78823861  0.00089393  0.55910939    -0.71920
O142        O  0.78450167  0.94689704  0.50387626    -0.71860
O143        O  0.78470173  0.05616955  0.50523493    -0.72050
V144        V  0.72360938  0.00240113  0.50776562     1.35240
V145        V  0.78362916  0.00150477  0.50486949     1.35170
C146        C  0.75337074  0.07508048  0.50619269     0.77380
C147        C  0.75317123  0.92885386  0.50597801     0.77440
C148        C  0.75820607  0.00160227  0.57918088     0.77310
C149        C  0.74992555  0.00267021  0.43348507     0.77270
C150        C  0.75889688  0.75822761  0.50415078    -0.02560
O151        O  0.05467089  0.72059688  0.49122598    -0.71860
O152        O  0.94646153  0.72581864  0.49602676    -0.72070
O153        O  0.99777382  0.72934926  0.43976837    -0.71930
O154        O  0.00295604  0.71878358  0.54799982    -0.71940
O155        O  0.00527075  0.78094216  0.55375991    -0.71900
O156        O  0.00140386  0.79140333  0.44636677    -0.71920
O157        O  0.94821039  0.78792815  0.50220238    -0.71860
O158        O  0.05776258  0.78254516  0.49858047    -0.72050
V159        V  0.00055638  0.72485868  0.49384219     1.35240
V160        V  0.00308416  0.78452479  0.50003428     1.35170
C161        C  0.07470466  0.75039495  0.49448936     0.77380
C162        C  0.92880160  0.75732723  0.50015589     0.77440
C163        C  0.99884429  0.76227207  0.42484763     0.77310
C164        C  0.00473726  0.74846601  0.56920615     0.77270
O165        O  0.05687721  0.28241069  0.50248440    -0.71860
O166        O  0.94800681  0.27880081  0.49786729    -0.72070
O167        O  0.00053679  0.27867657  0.55427275    -0.71930
O168        O  0.00398284  0.28186047  0.44604799    -0.71940
O169        O  0.00088444  0.21990091  0.44298690    -0.71900
O170        O  0.00900820  0.21678300  0.55198523    -0.71920
O171        O  0.95034835  0.21656536  0.50117379    -0.71860
O172        O  0.05942744  0.22055606  0.49402903    -0.72050
V173        V  0.00244996  0.27925543  0.50013036     1.35240
V174        V  0.00492950  0.21951030  0.49760248     1.35170
C175        C  0.07670543  0.25222783  0.49760720     0.77380
C176        C  0.93060406  0.24724704  0.49988897     0.77440
C177        C  0.00466940  0.24723613  0.57160488     0.77310
C178        C  0.00164623  0.25168218  0.42574722     0.77270
C179        C  0.76066280  0.24474140  0.49806502    -0.02560
C180        C  0.24439244  0.23889677  0.50301153    -0.02560
C181        C  0.00109581  0.25860360  0.25492557    -0.02560
C182        C  0.74634058  0.99953420  0.26380322    -0.02560
C183        C  0.99927514  0.73970716  0.26051793    -0.02560
C184        C  0.26342719  0.00457661  0.25384319    -0.02560
C185        C  0.00542275  0.74557760  0.73763486    -0.02560
C186        C  0.25852385  0.99689052  0.74059895    -0.02560
C187        C  0.99537573  0.26127116  0.74045616    -0.02560
C188        C  0.74908405  0.99547998  0.74638259    -0.02560
C189        C  0.25969036  0.25709447  0.00077482    -0.02560
C190        C  0.25865950  0.74037994  0.00629875    -0.02560
C191        C  0.74312501  0.26092929  0.00438204    -0.02560
C192        C  0.74409498  0.73873444  0.99917387    -0.02560
C193        C  0.81051209  0.18433717  0.14053602     0.03050
C194        C  0.84369093  0.20174743  0.15561099    -0.13100
C195        C  0.86349114  0.18505488  0.18642259     0.00550
C196        C  0.85028237  0.15087529  0.20199463    -0.11620
C197        C  0.81537628  0.13485256  0.18959314     0.03040
C198        C  0.79587309  0.15151654  0.15817407    -0.11040
H199        H  0.85441385  0.22781346  0.14300652     0.08640
H200        H  0.86745773  0.13690081  0.22385606     0.06170
H201        H  0.76921367  0.13925854  0.14757962     0.06020
C202        C  0.18463213  0.81443781  0.14232597     0.03050
C203        C  0.15572506  0.79498342  0.16207377    -0.13100
C204        C  0.13963044  0.81075438  0.19554821     0.00550
C205        C  0.15531099  0.84419318  0.21196306    -0.11620
C206        C  0.18456931  0.86406419  0.19311285     0.03040
C207        C  0.19785065  0.84950555  0.15762667    -0.11040
H208        H  0.14523107  0.76771137  0.15126701     0.08640
H209        H  0.14490171  0.85412054  0.23948067     0.06170
H210        H  0.21932534  0.86525534  0.14208229     0.06020
C211        C  0.18684801  0.13740830  0.81203565     0.03050
C212        C  0.20257590  0.15699909  0.84387764    -0.13100
C213        C  0.18578043  0.19116753  0.85849533     0.00550
C214        C  0.15297779  0.20595509  0.83981068    -0.11620
C215        C  0.13585442  0.18698667  0.80811241     0.03040
C216        C  0.15347495  0.15301638  0.79431459    -0.11040
H217        H  0.22882663  0.14627006  0.85658758     0.08640
H218        H  0.14116798  0.23304506  0.84941133     0.06170
H219        H  0.14218331  0.13941702  0.76873597     0.06020
C220        C  0.86806494  0.81826402  0.18127999     0.03050
C221        C  0.84691847  0.84651157  0.20127742    -0.13100
C222        C  0.81473327  0.86450833  0.18445560     0.00550
C223        C  0.80143229  0.85145861  0.14857906    -0.11620
C224        C  0.82004679  0.82117421  0.12924559     0.03040
C225        C  0.85445028  0.80608652  0.14499197    -0.11040
H226        H  0.85545516  0.85468708  0.23016965     0.08640
H227        H  0.77591844  0.86413005  0.13636481     0.06170
H228        H  0.86972054  0.78354726  0.12958406     0.06020
C229        C  0.18359828  0.82027004  0.87448512     0.03050
C230        C  0.19971078  0.85302147  0.85830076    -0.13100
C231        C  0.18663607  0.86662468  0.82255495     0.00550
C232        C  0.15565158  0.84787944  0.80421254    -0.11620
C233        C  0.13792654  0.81605001  0.82103034     0.03040
C234        C  0.15187222  0.80291724  0.85657117    -0.11040
H235        H  0.22263657  0.86755668  0.87358804     0.08640
H236        H  0.14554318  0.85784069  0.77652467     0.06170
H237        H  0.13803309  0.77937310  0.87071364     0.06020
C238        C  0.81138942  0.19083658  0.86421472     0.03050
C239        C  0.84056583  0.20949958  0.84412471    -0.13100
C240        C  0.85731114  0.19230904  0.81157068     0.00550
C241        C  0.84247416  0.15727264  0.79786185    -0.11620
C242        C  0.81093373  0.13989218  0.81549517     0.03040
C243        C  0.79698240  0.15592027  0.84980373    -0.11040
H244        H  0.85025372  0.23747846  0.85369823     0.08640
H245        H  0.85533204  0.14363568  0.77298558     0.06170
H246        H  0.77523220  0.14105089  0.86575032     0.06020
C247        C  0.81994178  0.86105498  0.81997864     0.03050
C248        C  0.85164055  0.84356525  0.80228477    -0.13100
C249        C  0.86656207  0.80835178  0.81582437     0.00550
C250        C  0.84766132  0.79042130  0.84623963    -0.11620
C251        C  0.81707960  0.80909447  0.86516739     0.03040
C252        C  0.80458799  0.84511839  0.85272928    -0.11040
H253        H  0.86447748  0.85747863  0.77796082     0.08640
H254        H  0.85602276  0.76180596  0.85485940     0.06170
H255        H  0.78229904  0.86067555  0.86806670     0.06020
C256        C  0.18057530  0.13068289  0.17567303     0.03050
C257        C  0.19860101  0.14858697  0.14499744    -0.13100
C258        C  0.18421500  0.18336275  0.13093371     0.00550
C259        C  0.15377770  0.20196378  0.14972761    -0.11620
C260        C  0.13571208  0.18467832  0.18094151     0.03040
C261        C  0.14804671  0.14804175  0.19229877    -0.11040
H262        H  0.22481591  0.13654743  0.13310222     0.08640
H263        H  0.14452174  0.23009051  0.14014557     0.06170
H264        H  0.13379159  0.13393561  0.21571107     0.06020
C265        C  0.36353207  0.31447316  0.69139139     0.03050
C266        C  0.34297447  0.34470461  0.70928786    -0.13100
C267        C  0.30821548  0.35895005  0.69352860     0.00550
C268        C  0.29345369  0.34148340  0.65989144    -0.11620
C269        C  0.31397761  0.31209588  0.64118687     0.03040
C270        C  0.34909115  0.29938159  0.65652807    -0.11040
H271        H  0.35355708  0.35695668  0.73581989     0.08640
H272        H  0.26611109  0.35091954  0.64792019     0.06170
H273        H  0.36465789  0.27678025  0.64150974     0.06020
C274        C  0.67875304  0.32576235  0.37230835     0.03050
C275        C  0.69764938  0.35393170  0.35139565    -0.13100
C276        C  0.67989569  0.37077798  0.31933054     0.00550
C277        C  0.64533582  0.35501661  0.30497848    -0.11620
C278        C  0.62647959  0.32560538  0.32448387     0.03040
C279        C  0.64255616  0.31291750  0.35937133    -0.11040
H280        H  0.72649558  0.36243336  0.35951167     0.08640
H281        H  0.63348261  0.36524304  0.27815397     0.06170
H282        H  0.62779741  0.29138296  0.37571964     0.06020
C283        C  0.30345391  0.68848987  0.35461158     0.03050
C284        C  0.28767742  0.65490520  0.33899508    -0.13100
C285        C  0.30273438  0.63854708  0.30534614     0.00550
C286        C  0.33582982  0.65481779  0.28928795    -0.11620
C287        C  0.35196255  0.68874769  0.30453360     0.03040
C288        C  0.33496765  0.70564650  0.33710253    -0.11040
H289        H  0.26453274  0.64098229  0.35385593     0.08640
H290        H  0.34923783  0.64077563  0.26491779     0.06170
H291        H  0.34676442  0.73170016  0.34955149     0.06020
C292        C  0.30983278  0.30819010  0.36343100     0.03050
C293        C  0.34407766  0.29313744  0.34773385    -0.13100
C294        C  0.36203252  0.31096335  0.31663759     0.00550
C295        C  0.34410033  0.34365459  0.30064560    -0.11620
C296        C  0.30835486  0.35677122  0.31391090     0.03040
C297        C  0.29119841  0.33877543  0.34490465    -0.11040
H298        H  0.35614400  0.26711857  0.35947563     0.08640
H299        H  0.35756661  0.35886955  0.27749371     0.06170
H300        H  0.26302232  0.34839532  0.35411438     0.06020
C301        C  0.36016258  0.68595066  0.69078746     0.03050
C302        C  0.34432701  0.70031700  0.65655295    -0.13100
C303        C  0.30797121  0.68851011  0.64323345     0.00550
C304        C  0.28972221  0.65833527  0.66240472    -0.11620
C305        C  0.30743826  0.64071280  0.69408222     0.03040
C306        C  0.34200004  0.65539647  0.70892413    -0.11040
H307        H  0.36047253  0.72104901  0.64062777     0.08640
H308        H  0.26211074  0.64786269  0.65236613     0.06170
H309        H  0.35470209  0.64295159  0.73448445     0.06020
C310        C  0.68330275  0.36108113  0.68683057     0.03050
C311        C  0.65153767  0.34324256  0.70353590    -0.13100
C312        C  0.63895571  0.30732738  0.69031961     0.00550
C313        C  0.65744535  0.28929958  0.65924098    -0.11620
C314        C  0.68749654  0.30770432  0.64010766     0.03040
C315        C  0.70109377  0.34284257  0.65528405    -0.11040
H316        H  0.63659929  0.35710531  0.72715256     0.08640
H317        H  0.64825469  0.26103284  0.65019110     0.06170
H318        H  0.72569671  0.35620983  0.64240093     0.06020
C319        C  0.68039104  0.68311216  0.37115669     0.03050
C320        C  0.69804142  0.65051321  0.35454457    -0.13100
C321        C  0.68556365  0.63584029  0.31870691     0.00550
C322        C  0.65385630  0.65366268  0.30039929    -0.11620
C323        C  0.63400373  0.68435950  0.31790868     0.03040
C324        C  0.64686726  0.69807900  0.35383099    -0.11040
H325        H  0.72148339  0.63678125  0.36972967     0.08640
H326        H  0.64446397  0.64360745  0.27234539     0.06170
H327        H  0.63092592  0.72087124  0.36806655     0.06020
C328        C  0.69072725  0.68740682  0.64222885     0.03050
C329        C  0.70291505  0.65077235  0.65444263    -0.13100
C330        C  0.68475451  0.63272427  0.68508753     0.00550
C331        C  0.65238406  0.65001073  0.70171094    -0.11620
C332        C  0.63996896  0.68671671  0.69059421     0.03040
C333        C  0.65945953  0.70527510  0.66099006    -0.11040
H334        H  0.72603623  0.63575484  0.63996247     0.08640
H335        H  0.63709830  0.63475008  0.72356738     0.06170
H336        H  0.65012594  0.73371429  0.65243161     0.06020
C337        C  0.74211257  0.77539160  0.93479948    -0.20380
C338        C  0.76447966  0.75899254  0.96476647    -0.06950
C339        C  0.80557331  0.76385157  0.96240236     0.13920
C340        C  0.82144943  0.78001908  0.92944389    -0.20440
C341        C  0.79844921  0.79166016  0.89856593    -0.06950
C342        C  0.75821238  0.78836710  0.90090994     0.13910
C343        C  0.73175725  0.79592953  0.86703244    -0.23780
H344        H  0.71134871  0.77765068  0.93632898     0.15200
H345        H  0.85233590  0.78381204  0.92774506     0.15220
C346        C  0.83406344  0.75197716  0.99334035    -0.23730
H347        H  0.70205273  0.78585296  0.87235435     0.05440
H348        H  0.74248066  0.78018026  0.84133851     0.08660
H349        H  0.72946495  0.82694660  0.86088398     0.08660
H350        H  0.86388890  0.75005083  0.98221625     0.08650
H351        H  0.82736002  0.72335419  0.00470552     0.08650
H352        H  0.83468062  0.77357048  0.01686166     0.05420
C353        C  0.76396335  0.79842261  0.03683442    -0.20380
C354        C  0.76252025  0.75751198  0.03666653    -0.06950
C355        C  0.78150418  0.73869222  0.06848030     0.13920
C356        C  0.79844025  0.76106346  0.09781842    -0.20440
C357        C  0.80069876  0.80106184  0.09634481    -0.06950
C358        C  0.78399748  0.81996846  0.06467575     0.13910
C359        C  0.78964991  0.86225040  0.05785441    -0.23780
H360        H  0.75034747  0.81389048  0.01348933     0.15200
H361        H  0.81070045  0.74687544  0.12268042     0.15220
C362        C  0.78632616  0.69587110  0.07387919    -0.23730
H363        H  0.78183147  0.87006095  0.02795671     0.05440
H364        H  0.82035561  0.86979251  0.06237915     0.08660
H365        H  0.77113147  0.87993535  0.07685139     0.08660
H366        H  0.79886499  0.68159165  0.04834758     0.08650
H367        H  0.75889208  0.68318686  0.08296750     0.08650
H368        H  0.80686630  0.68892335  0.09747036     0.05420
C369        C  0.79820459  0.23570380  0.96338189    -0.20380
C370        C  0.75758228  0.23981951  0.96643569    -0.06950
C371        C  0.73540980  0.22954996  0.93255255     0.13920
C372        C  0.75439214  0.21375472  0.90038557    -0.20440
C373        C  0.79427549  0.20839902  0.89931164    -0.06950
C374        C  0.81647324  0.21911517  0.93153741     0.13910
C375        C  0.85930972  0.21158072  0.93360239    -0.23780
H376        H  0.81624268  0.24495129  0.98700810     0.15200
H377        H  0.73778836  0.20567789  0.87509251     0.15220
C378        C  0.69254244  0.23583315  0.92660923    -0.23730
H379        H  0.87128666  0.21822135  0.96255179     0.05440
H380        H  0.87471454  0.22972344  0.91302433     0.08660
H381        H  0.86541554  0.18081737  0.92727037     0.08660
H382        H  0.68228447  0.26406152  0.93715873     0.08650
H383        H  0.67637039  0.21187382  0.93904264     0.08650
H384        H  0.68459046  0.23558938  0.89566067     0.05420
C385        C  0.76953258  0.23493272  0.11161711    -0.20380
C386        C  0.79086003  0.20122788  0.10676166    -0.06950
C387        C  0.79346303  0.18450216  0.07007033     0.13920
C388        C  0.77598068  0.20293294  0.03873991    -0.20440
C389        C  0.75802650  0.23976962  0.04185481    -0.06950
C390        C  0.75204374  0.25383729  0.08040980     0.13910
C391        C  0.72732004  0.28814157  0.09063234    -0.23780
H392        H  0.76658223  0.24653780  0.14045183     0.15200
H393        H  0.77650547  0.18755680  0.01172457     0.15220
C394        C  0.81552097  0.14751046  0.06374693    -0.23730
H395        H  0.72593115  0.29310821  0.12211909     0.05440
H396        H  0.69725263  0.28347404  0.08129082     0.08660
H397        H  0.73942320  0.31456430  0.07903211     0.08660
H398        H  0.80229270  0.12414361  0.08033364     0.08650
H399        H  0.84587067  0.15115939  0.07329617     0.08650
H400        H  0.81565333  0.13865716  0.03303930     0.05420
C401        C  0.21876057  0.79683589  0.97530413    -0.20380
C402        C  0.24017185  0.76191343  0.97002776    -0.06950
C403        C  0.24608149  0.75051815  0.93055086     0.13920
C404        C  0.22640404  0.76981953  0.90080365    -0.20440
C405        C  0.20258775  0.80151185  0.90776749    -0.06950
C406        C  0.19907103  0.81553110  0.94535251     0.13910
C407        C  0.17410922  0.85013965  0.95396828    -0.23780
H408        H  0.21748963  0.81101254  0.00289804     0.15200
H409        H  0.23005787  0.76047027  0.87126201     0.15220
C410        C  0.27368292  0.71936786  0.91760116    -0.23730
H411        H  0.17361983  0.85713496  0.98512299     0.05440
H412        H  0.14409019  0.84446511  0.94440783     0.08660
H413        H  0.18506780  0.87549959  0.93866329     0.08660
H414        H  0.30337588  0.72593018  0.92695068     0.08650
H415        H  0.26428534  0.69100271  0.92700904     0.08650
H416        H  0.27505145  0.71697222  0.88584542     0.05420
C417        C  0.24351755  0.79772101  0.10500280    -0.20380
C418        C  0.20325110  0.79713486  0.10740843    -0.06950
C419        C  0.18253649  0.77824895  0.07791739     0.13920
C420        C  0.20256358  0.75850956  0.04894919    -0.20440
C421        C  0.24324128  0.76016743  0.04454319    -0.06950
C422        C  0.26411674  0.77965064  0.07498456     0.13910
C423        C  0.30730479  0.78064798  0.08123183    -0.23780
H424        H  0.25957914  0.81136026  0.12816995     0.15200
H425        H  0.18549973  0.74399120  0.02710060     0.15220
C426        C  0.13927519  0.78045388  0.07400203    -0.23730
H427        H  0.31426011  0.77469961  0.11179329     0.05440
H428        H  0.31816873  0.80968678  0.07464024     0.08660
H429        H  0.32407362  0.75885073  0.06580750     0.08660
H430        H  0.12586192  0.80131896  0.09412532     0.08650
H431        H  0.12684147  0.75160494  0.07835668     0.08650
H432        H  0.13145159  0.79027280  0.04472015     0.05420
C433        C  0.20132657  0.24333051  0.95527281    -0.20380
C434        C  0.24156873  0.24047406  0.96142280    -0.06950
C435        C  0.26155764  0.21806430  0.93249406     0.13920
C436        C  0.24364510  0.21047985  0.89695439    -0.20440
C437        C  0.20355375  0.21156999  0.89259578    -0.06950
C438        C  0.18196475  0.22705397  0.92344983     0.13910
C439        C  0.13871518  0.22335865  0.92570907    -0.23780
H440        H  0.18364072  0.25298673  0.97797370     0.15200
H441        H  0.26097730  0.19804734  0.87422635     0.15220
C442        C  0.29530987  0.19128020  0.94038258    -0.23730
H443        H  0.12825254  0.22814131  0.95541064     0.04160
H444        H  0.12976833  0.19399626  0.91695253     0.08660
H445        H  0.12416742  0.24523747  0.90775978     0.08660
H446        H  0.29507719  0.18098375  0.97016660     0.08650
H447        H  0.32304312  0.20433753  0.93256761     0.08650
H448        H  0.29309573  0.16444273  0.92291736     0.05420
C449        C  0.21971135  0.20355579  0.03101750    -0.20380
C450        C  0.24023002  0.23837150  0.03619948    -0.06950
C451        C  0.24253649  0.25368446  0.07471095     0.13920
C452        C  0.22320797  0.23531533  0.10443987    -0.20440
C453        C  0.20272490  0.20163750  0.09805956    -0.06950
C454        C  0.20084367  0.18551642  0.06102876     0.13910
C455        C  0.17840873  0.14941916  0.05288233    -0.23780
H456        H  0.21942366  0.18882939  0.00360692     0.15200
H457        H  0.22478395  0.24683246  0.13344623     0.15220
C458        C  0.26722209  0.28725018  0.08667945    -0.23730
H459        H  0.17850630  0.14153814  0.02192217     0.05440
H460        H  0.14801161  0.15369651  0.06165968     0.08660
H461        H  0.19117408  0.12505454  0.06889930     0.08660
H462        H  0.25412095  0.31459667  0.07704147     0.08650
H463        H  0.29691443  0.28322699  0.07599853     0.08650
H464        H  0.26983205  0.29002104  0.11837003     0.05420
C465        C  0.78948350  0.96314103  0.80043256    -0.20380
C466        C  0.76346186  0.95909056  0.76889415    -0.06950
C467        C  0.75161018  0.92054067  0.75981040     0.13920
C468        C  0.77137274  0.88937299  0.77649881    -0.20440
C469        C  0.80093281  0.89493564  0.80332628    -0.06950
C470        C  0.80899958  0.93198302  0.81666420     0.13910
C471        C  0.83843198  0.93866048  0.84804476    -0.23780
H472        H  0.79537904  0.99071205  0.81322225     0.15200
H473        H  0.76371050  0.86019071  0.76865381     0.15220
C474        C  0.71907083  0.91066713  0.73252363    -0.23730
H475        H  0.84178966  0.96966113  0.85496628     0.05440
H476        H  0.86685085  0.92715993  0.83886043     0.08660
H477        H  0.82954131  0.92390315  0.87453384     0.08660
H478        H  0.72323084  0.92359511  0.70411304     0.08650
H479        H  0.69123642  0.91993946  0.74499351     0.08650
H480        H  0.71680975  0.87921842  0.72750383     0.05420
C481        C  0.74089606  0.06490991  0.77504764    -0.20380
C482        C  0.76591446  0.03421242  0.76416292    -0.06950
C483        C  0.80642614  0.04229731  0.76671796     0.13920
C484        C  0.81932925  0.07548280  0.78562697    -0.20440
C485        C  0.79410739  0.10413862  0.79852752    -0.06950
C486        C  0.75426881  0.09949521  0.79145639     0.13910
C487        C  0.72567566  0.13167444  0.79858708    -0.23780
H488        H  0.71040770  0.06312055  0.76939555     0.15200
H489        H  0.85006198  0.07932574  0.78966297     0.15220
C490        C  0.83819689  0.01722267  0.75095832    -0.23730
H491        H  0.69665097  0.12467867  0.78700841     0.05440
H492        H  0.73533926  0.15817469  0.78429386     0.08660
H493        H  0.72230649  0.13721478  0.82969320     0.08660
H494        H  0.82788847  0.99139151  0.73684770     0.08650
H495        H  0.85793816  0.00826439  0.77453130     0.08650
H496        H  0.85481938  0.03347827  0.72958915     0.05420
C497        C  0.93142057  0.22263701  0.73808789    -0.20380
C498        C  0.96035710  0.24093885  0.76061944    -0.06950
C499        C  0.95627092  0.23754218  0.80149301     0.13920
C500        C  0.92215211  0.22237528  0.81668604    -0.20440
C501        C  0.89162525  0.20981781  0.79321966    -0.06950
C502        C  0.89625415  0.21106281  0.75313042     0.13910
C503        C  0.86418738  0.20279742  0.72473387    -0.23780
H504        H  0.93425786  0.21874676  0.70761197     0.15200
H505        H  0.91958430  0.21952735  0.84747960     0.15220
C506        C  0.98731528  0.24825630  0.83031597    -0.23730
H507        H  0.86139502  0.22704174  0.70444051     0.05440
H508        H  0.83568618  0.20010221  0.73832240     0.08660
H509        H  0.87097571  0.17620711  0.70816809     0.08660
H510        H  0.99884367  0.27700273  0.82483414     0.08650
H511        H  0.01095728  0.22673071  0.82986809     0.08650
H512        H  0.97627337  0.24888853  0.86011244     0.05420
C513        C  0.03600752  0.20337849  0.76139809    -0.20380
C514        C  0.03336007  0.24411012  0.75957084    -0.06950
C515        C  0.06542207  0.26480770  0.77597120     0.13920
C516        C  0.09934152  0.24474733  0.78582145    -0.20440
C517        C  0.10095087  0.20465263  0.78883637    -0.06950
C518        C  0.06786243  0.18377252  0.77747392     0.13910
C519        C  0.06435183  0.14119879  0.78387557    -0.23780
H520        H  0.01215576  0.18647545  0.75058036     0.15200
H521        H  0.12436462  0.26126050  0.79433131     0.15220
C522        C  0.06583422  0.30658071  0.78867724    -0.23730
H523        H  0.03419565  0.13149496  0.77986762     0.05440
H524        H  0.07317324  0.13406924  0.81366416     0.08660
H525        H  0.08191635  0.12475840  0.76295068     0.08660
H526        H  0.03736788  0.31867158  0.79576603     0.08650
H527        H  0.08097153  0.32420486  0.76734535     0.08650
H528        H  0.08199590  0.30959872  0.81621429     0.05420
C529        C  0.26110613  0.93478234  0.78190796    -0.20380
C530        C  0.23840548  0.96378816  0.76399546    -0.06950
C531        C  0.19757906  0.96189369  0.77077557     0.13920
C532        C  0.18215557  0.93026637  0.79024426    -0.20440
C533        C  0.20528679  0.90013059  0.80396551    -0.06950
C534        C  0.24540979  0.90226764  0.79893348     0.13910
C535        C  0.27222194  0.86932100  0.80887103    -0.23780
H536        H  0.29195426  0.93605510  0.78244108     0.15200
H537        H  0.15139929  0.92907935  0.79502870     0.15220
C538        C  0.16893438  0.99258258  0.75868755    -0.23730
H539        H  0.30146461  0.87345070  0.79705820     0.05440
H540        H  0.26100172  0.84210677  0.79641872     0.08660
H541        H  0.27576957  0.86669296  0.84028935     0.08660
H542        H  0.13893749  0.98183115  0.75884860     0.08650
H543        H  0.17432959  0.00241798  0.72928945     0.08650
H544        H  0.16975229  0.01724901  0.77896506     0.05420
C545        C  0.20864819  0.09993158  0.75487727    -0.20380
C546        C  0.20680676  0.10265529  0.79482677    -0.06950
C547        C  0.22218898  0.07172935  0.81631607     0.13920
C548        C  0.24043601  0.04073596  0.79718186    -0.20440
C549        C  0.24092842  0.03639242  0.75653172    -0.06950
C550        C  0.22208651  0.06693819  0.73528719     0.13910
C551        C  0.21225594  0.06703738  0.69282226    -0.23780
H552        H  0.19784568  0.12391948  0.73828421     0.15200
H553        H  0.25326728  0.01829904  0.81452668     0.15220
C554        C  0.21721258  0.06905552  0.85914606    -0.23730
H555        H  0.18913794  0.08824998  0.68605128     0.05440
H556        H  0.20003057  0.03956948  0.68264254     0.08660
H557        H  0.23716564  0.07652074  0.67597000     0.08660
H558        H  0.18727740  0.07696460  0.86713275     0.08650
H559        H  0.23808392  0.08762589  0.87452128     0.08650
H560        H  0.22255617  0.03934187  0.86928913     0.05420
C561        C  0.96447780  0.76118494  0.79611473    -0.20380
C562        C  0.96696790  0.76262328  0.75542458    -0.06950
C563        C  0.93503051  0.78107673  0.73582439     0.13920
C564        C  0.90186152  0.79109103  0.75654708    -0.20440
C565        C  0.90053070  0.79014874  0.79656954    -0.06950
C566        C  0.93300419  0.77594541  0.81673680     0.13910
C567        C  0.93617621  0.77813471  0.85991402    -0.23780
H568        H  0.98817036  0.74864032  0.81223196     0.15200
H569        H  0.87698787  0.80225102  0.74111243     0.15220
C570        C  0.93385905  0.79494170  0.69473184    -0.23730
H571        H  0.96569287  0.77076596  0.87011745     0.05440
H572        H  0.91650222  0.75752088  0.87330987     0.08660
H573        H  0.92954857  0.80776961  0.87010203     0.08660
H574        H  0.92081065  0.77294540  0.67554852     0.08650
H575        H  0.96180499  0.80495617  0.68425666     0.08650
H576        H  0.91519626  0.82091485  0.69213860     0.05420
C577        C  0.06916543  0.74195032  0.77752095    -0.20380
C578        C  0.03953396  0.76499606  0.76103315    -0.06950
C579        C  0.04154828  0.80558533  0.76937387     0.13920
C580        C  0.07374281  0.82061767  0.78907531    -0.20440
C581        C  0.10430479  0.79737837  0.80164074    -0.06950
C582        C  0.10214048  0.75740049  0.79515269     0.13910
C583        C  0.13541483  0.73062903  0.80421975    -0.23780
H584        H  0.06791908  0.71113464  0.77614479     0.15200
H585        H  0.07499410  0.85118836  0.79513358     0.15220
C586        C  0.01040629  0.83440737  0.75882041    -0.23730
H587        H  0.13096557  0.70154835  0.79161481     0.05440
H588        H  0.13885312  0.72689280  0.83552543     0.08660
H589        H  0.16238234  0.74195677  0.79201299     0.08660
H590        H  0.98583591  0.83250696  0.77866599     0.08650
H591        H  0.00044498  0.83031228  0.72898870     0.08650
H592        H  0.02082806  0.86440244  0.76111763     0.05420
C593        C  0.20258753  0.96427177  0.23617571    -0.20380
C594        C  0.24345724  0.96671730  0.23623531    -0.06950
C595        C  0.26228364  0.93656221  0.21457522     0.13920
C596        C  0.24326088  0.90175622  0.20788662    -0.20440
C597        C  0.20318209  0.89897021  0.21035962    -0.06950
C598        C  0.18237882  0.93169432  0.22308146     0.13910
C599        C  0.13902875  0.93389024  0.22067989    -0.23780
H600        H  0.18576852  0.98927410  0.24451967     0.15200
H601        H  0.25939811  0.87805042  0.19525694     0.15220
C602        C  0.29573755  0.94246444  0.18767790    -0.23730
H603        H  0.12807863  0.96329094  0.22719497     0.05440
H604        H  0.12596183  0.91458015  0.24179200     0.08660
H605        H  0.12912613  0.92609205  0.19126081     0.08660
H606        H  0.32280692  0.93036096  0.19975740     0.08650
H607        H  0.29875440  0.97275751  0.17925759     0.08650
H608        H  0.29055649  0.92725464  0.15990386     0.05420
C609        C  0.23079422  0.03582735  0.19609598    -0.20380
C610        C  0.24136931  0.03971146  0.23555213    -0.06950
C611        C  0.22878023  0.07455975  0.25475340     0.13920
C612        C  0.20908684  0.10277084  0.23370369    -0.20440
C613        C  0.19958185  0.09800513  0.19506286    -0.06950
C614        C  0.20955459  0.06364467  0.17617836     0.13910
C615        C  0.19681151  0.05540420  0.13545901    -0.23780
H616        H  0.23971066  0.01061905  0.17999144     0.15200
H617        H  0.20123722  0.12972870  0.24752680     0.15220
C618        C  0.23588638  0.08547785  0.29630707    -0.23730
H619        H  0.20428876  0.02560886  0.12636097     0.05440
H620        H  0.21098818  0.07501120  0.11536888     0.08660
H621        H  0.16508148  0.05888781  0.13297934     0.08660
H622        H  0.26681085  0.08823816  0.30219584     0.08650
H623        H  0.22151450  0.06568439  0.31591859     0.08650
H624        H  0.22368947  0.11413525  0.30392648     0.05420
C625        C  0.95682761  0.79714939  0.24344983    -0.20380
C626        C  0.96208222  0.75669519  0.23940176    -0.06950
C627        C  0.93231050  0.73694894  0.21776707     0.13920
C628        C  0.90408361  0.75850301  0.19791536    -0.20440
C629        C  0.90179521  0.79861862  0.19996420    -0.06950
C630        C  0.92938349  0.81818903  0.22256711     0.13910
C631        C  0.93300316  0.86134691  0.22348289    -0.23780
H632        H  0.97728254  0.81339624  0.26062760     0.15200
H633        H  0.88173692  0.74330856  0.18217014     0.15220
C634        C  0.92398828  0.69431188  0.21694246    -0.23730
H635        H  0.96316569  0.86923683  0.21710637     0.05440
H636        H  0.92560138  0.87258206  0.25244985     0.08660
H637        H  0.91482887  0.87580375  0.20165298     0.08660
H638        H  0.93670670  0.67759062  0.24026637     0.08650
H639        H  0.93220189  0.68179667  0.18872070     0.08650
H640        H  0.89262377  0.68963958  0.22061561     0.05420
C641        C  0.03570254  0.78490529  0.21304427    -0.20380
C642        C  0.03779551  0.75569760  0.24132515    -0.06950
C643        C  0.07648561  0.74283758  0.25094203     0.13920
C644        C  0.10875130  0.76131505  0.23547141    -0.20440
C645        C  0.10488472  0.79305957  0.21190997    -0.06950
C646        C  0.06791941  0.80552040  0.20119866     0.13910
C647        C  0.06239724  0.84093112  0.17716252    -0.23780
H648        H  0.00910645  0.79261027  0.19913554     0.15200
H649        H  0.13764811  0.75127795  0.24223203     0.15220
C650        C  0.08598209  0.70963050  0.27680912    -0.23730
H651        H  0.03147514  0.84737701  0.17164223     0.05440
H652        H  0.07691664  0.83700569  0.14915567     0.08660
H653        H  0.07492986  0.86609565  0.19246146     0.08660
H654        H  0.07520841  0.68229103  0.26459906     0.08650
H655        H  0.07518991  0.71566139  0.30576804     0.08650
H656        H  0.11750255  0.70508794  0.28040687     0.05420
C657        C  0.81995817  0.92706676  0.21847990    -0.20380
C658        C  0.79620354  0.89786942  0.20416739    -0.06950
C659        C  0.75614220  0.90093937  0.20978613     0.13920
C660        C  0.74094789  0.93422480  0.22698035    -0.20440
C661        C  0.76447477  0.96295662  0.24419793    -0.06950
C662        C  0.80530034  0.95829321  0.23967178     0.13910
C663        C  0.83499699  0.98437786  0.25785475    -0.23780
H664        H  0.85080239  0.92477548  0.21427587     0.15200
H665        H  0.71014207  0.93682681  0.22616746     0.15220
C666        C  0.72892492  0.86861040  0.19997447    -0.23730
H667        H  0.85890589  0.96697096  0.27027735     0.05440
H668        H  0.82358299  0.00152841  0.28205165     0.08660
H669        H  0.84701603  0.00352184  0.23582116     0.08660
H670        H  0.74094223  0.84091544  0.21034074     0.08650
H671        H  0.72320270  0.86696816  0.16873823     0.08650
H672        H  0.70057086  0.87290545  0.21395680     0.05420
C673        C  0.78586466  0.07003838  0.18644293    -0.20380
C674        C  0.79968965  0.10046951  0.20900820    -0.06950
C675        C  0.79745478  0.09777434  0.24934301     0.13920
C676        C  0.78355049  0.06413262  0.26568494    -0.20440
C677        C  0.76618014  0.03440973  0.24365579    -0.06950
C678        C  0.76854879  0.03771113  0.20258518     0.13910
C679        C  0.75143184  0.00896502  0.17448789    -0.23780
H680        H  0.78803226  0.07190666  0.15552357     0.15200
H681        H  0.78634468  0.06218749  0.29630981     0.15220
C682        C  0.80682903  0.13109510  0.27590004    -0.23730
H683        H  0.74953408  0.02062513  0.14500595     0.05440
H684        H  0.72175186  0.00132202  0.18252917     0.08660
H685        H  0.76987011  0.98294959  0.17244888     0.08660
H686        H  0.79296473  0.15781959  0.26522073     0.08650
H687        H  0.83829902  0.13494970  0.27875666     0.08650
H688        H  0.79587271  0.12638601  0.30529340     0.05420
C689        C  0.89330342  0.23177797  0.23127163    -0.20380
C690        C  0.89796305  0.20328574  0.20319629    -0.06950
C691        C  0.93492149  0.18977262  0.19451421     0.13920
C692        C  0.96670873  0.20630030  0.21292650    -0.20440
C693        C  0.96356503  0.23784716  0.23922711    -0.06950
C694        C  0.92505781  0.24832319  0.25044878     0.13910
C695        C  0.91576180  0.27535530  0.28337463    -0.23780
H696        H  0.86425810  0.24018478  0.23911030     0.15200
H697        H  0.99416193  0.19351267  0.20610480     0.15220
C698        C  0.94089642  0.15783116  0.16549859    -0.23730
H699        H  0.88432939  0.28089721  0.28576481     0.05440
H700        H  0.92916365  0.30369158  0.28008914     0.08660
H701        H  0.92476467  0.26217080  0.31082220     0.08660
H702        H  0.92846699  0.16641190  0.13738251     0.08650
H703        H  0.92658060  0.13135910  0.17521157     0.08650
H704        H  0.97188378  0.15102147  0.16130114     0.05420
C705        C  0.06740224  0.22307795  0.25781286    -0.20380
C706        C  0.03802095  0.24081009  0.23560699    -0.06950
C707        C  0.04453476  0.24303700  0.19493296     0.13920
C708        C  0.07543338  0.22286266  0.17860262    -0.20440
C709        C  0.10356682  0.20473460  0.20099308    -0.06950
C710        C  0.10056538  0.20692238  0.24137730     0.13910
C711        C  0.13260558  0.19501057  0.26838916    -0.23780
H712        H  0.06650602  0.22399394  0.28869148     0.15200
H713        H  0.07816588  0.22200840  0.14766688     0.15220
C714        C  0.02020305  0.26669806  0.16747786    -0.23730
H715        H  0.13886941  0.21897302  0.28874133     0.05440
H716        H  0.15996856  0.18847844  0.25361095     0.08660
H717        H  0.12364552  0.16964685  0.28497948     0.08660
H718        H  0.02546221  0.29764650  0.17264640     0.08650
H719        H  0.98919209  0.26056340  0.16955048     0.08650
H720        H  0.02798041  0.26117976  0.13706990     0.05420
C721        C  0.26312310  0.29462978  0.46080203    -0.20380
C722        C  0.26165419  0.25417026  0.46428400    -0.06950
C723        C  0.27213254  0.23215539  0.43046208     0.13920
C724        C  0.28865377  0.25092574  0.39918358    -0.20440
C725        C  0.29276086  0.29076412  0.39814854    -0.06950
C726        C  0.28032128  0.31291466  0.42988572     0.13910
C727        C  0.28744728  0.35556651  0.43309504    -0.23780
H728        H  0.25242047  0.31251497  0.48389440     0.15200
H729        H  0.29688902  0.23417275  0.37408284     0.15220
C730        C  0.26378791  0.19019143  0.42209801    -0.23730
H731        H  0.28101345  0.36685896  0.46229333     0.05440
H732        H  0.26885170  0.37173056  0.41290605     0.08660
H733        H  0.31818659  0.36154984  0.42735830     0.08660
H734        H  0.24197164  0.17687345  0.43996162     0.08650
H735        H  0.29092208  0.17314944  0.42312179     0.08650
H736        H  0.25150806  0.18716158  0.39266869     0.05420
C737        C  0.29756789  0.27951105  0.53802987    -0.20380
C738        C  0.26480523  0.25539678  0.54049649    -0.06950
C739        C  0.25176180  0.24759040  0.57875301     0.13920
C740        C  0.26782419  0.26741177  0.61041827    -0.20440
C741        C  0.29794837  0.29312351  0.60637054    -0.06950
C742        C  0.31359001  0.29863310  0.56993850     0.13910
C743        C  0.34686368  0.32546811  0.56449286    -0.23780
H744        H  0.31165088  0.28401770  0.51113077     0.15200
H745        H  0.25727327  0.26228799  0.63906695     0.15220
C746        C  0.22145387  0.21843525  0.58809337    -0.23730
H747        H  0.35497852  0.32764946  0.53386509     0.05440
H748        H  0.37246808  0.31502861  0.58067214     0.08660
H749        H  0.33889149  0.35466943  0.57499503     0.08660
H750        H  0.23278777  0.18912159  0.58248268     0.08650
H751        H  0.19434433  0.22372991  0.57222326     0.08650
H752        H  0.21377920  0.21918036  0.61894996     0.05420
C753        C  0.69878143  0.26594121  0.40459827    -0.20380
C754        C  0.69844761  0.30601434  0.40482000    -0.06950
C755        C  0.71462800  0.32551577  0.43661642     0.13920
C756        C  0.73395901  0.30437747  0.46506852    -0.20440
C757        C  0.73741141  0.26370878  0.46398755    -0.06950
C758        C  0.71468758  0.24450896  0.43478327     0.13910
C759        C  0.70184828  0.20311685  0.43530185    -0.23780
H760        H  0.68479625  0.25104496  0.38087790     0.15200
H761        H  0.74727427  0.32019545  0.48848204     0.15220
C762        C  0.71055939  0.36837882  0.44179834    -0.23730
H763        H  0.67868606  0.19731178  0.41386787     0.05440
H764        H  0.68881576  0.19635085  0.46322848     0.08660
H765        H  0.72522564  0.18314898  0.42724157     0.08660
H766        H  0.67982858  0.37704018  0.43896622     0.08650
H767        H  0.72794417  0.38347193  0.42039118     0.08650
H768        H  0.72087936  0.37801548  0.47054979     0.05420
C769        C  0.70231887  0.26405261  0.53962654    -0.20380
C770        C  0.74301618  0.26386326  0.53587325    -0.06950
C771        C  0.76361856  0.28440772  0.56549633     0.13920
C772        C  0.74533186  0.29296035  0.60040847    -0.20440
C773        C  0.70531039  0.29081872  0.60452932    -0.06950
C774        C  0.68335592  0.27805070  0.57250264     0.13910
C775        C  0.63998167  0.28091617  0.57137059    -0.23780
H776        H  0.68491795  0.25244648  0.51637637     0.15200
H777        H  0.76242125  0.30497580  0.62370645     0.15220
C778        C  0.80075803  0.30590973  0.55978515    -0.23730
H779        H  0.62832295  0.27478004  0.54218570     0.05440
H780        H  0.63057817  0.31043009  0.57953573     0.08660
H781        H  0.62706737  0.25975854  0.59072939     0.08660
H782        H  0.80428402  0.31500080  0.52976190     0.08650
H783        H  0.82581386  0.28922074  0.57061622     0.08650
H784        H  0.80040181  0.33342614  0.57627902     0.05420
C785        C  0.13907282  0.27685271  0.52250028    -0.20380
C786        C  0.11903800  0.25399527  0.49589825    -0.06950
C787        C  0.13964034  0.23492510  0.46680139     0.13920
C788        C  0.17983609  0.23528302  0.46805267    -0.20440
C789        C  0.20084768  0.25190854  0.49906788    -0.06950
C790        C  0.17960233  0.27803798  0.52321348     0.13910
C791        C  0.19648566  0.30961122  0.54797084    -0.23780
H792        H  0.12287841  0.29444842  0.54266641     0.15200
H793        H  0.19476827  0.21916504  0.44622204     0.15220
C794        C  0.11952101  0.21410484  0.43423819    -0.23730
H795        H  0.19218347  0.30320757  0.57873992     0.05440
H796        H  0.18131314  0.33706449  0.54160676     0.08660
H797        H  0.22696852  0.31548288  0.54261596     0.08660
H798        H  0.09953135  0.23410516  0.41922975     0.08650
H799        H  0.10317503  0.18946999  0.44534813     0.08650
H800        H  0.14022965  0.20257149  0.41282238     0.05420
C801        C  0.02595428  0.23210842  0.67753753    -0.20380
C802        C  0.99491429  0.25232153  0.69547002    -0.06950
C803        C  0.96686321  0.26946603  0.66978120     0.13920
C804        C  0.97138827  0.26656453  0.63010737    -0.20440
C805        C  0.00197633  0.24661709  0.61369711    -0.06950
C806        C  0.02938367  0.22866802  0.63745406     0.13910
C807        C  0.06360704  0.20779044  0.62058119    -0.23780
H808        H  0.04940739  0.22022524  0.69399033     0.15200
H809        H  0.95030883  0.28022762  0.61139004     0.15220
C810        C  0.93149027  0.29205300  0.68154610    -0.23730
H811        H  0.08335487  0.19655884  0.64313001     0.05440
H812        H  0.08014326  0.22760494  0.60237915     0.08660
H813        H  0.05371952  0.18303420  0.60288693     0.08660
H814        H  0.93434765  0.32243831  0.67277156     0.08650
H815        H  0.92567522  0.29147492  0.71215215     0.08650
H816        H  0.90564812  0.27973381  0.66717854     0.05420
C817        C  0.00146825  0.21951887  0.36110543    -0.20380
C818        C  0.99991176  0.25361014  0.38297038    -0.06950
C819        C  0.99568878  0.28868111  0.36341932     0.13920
C820        C  0.99544484  0.28866525  0.32337106    -0.20440
C821        C  0.00039246  0.25502246  0.30026057    -0.06950
C822        C  0.00111913  0.21942223  0.32061166     0.13910
C823        C  0.00201302  0.18020657  0.30183341    -0.23780
H824        H  0.00323806  0.19227079  0.37577552     0.15200
H825        H  0.98962145  0.31609907  0.31062957     0.15220
C826        C  0.99034200  0.32684189  0.38396889    -0.23730
H827        H  0.97542187  0.16451770  0.30906499     0.05440
H828        H  0.02730273  0.16371672  0.31269310     0.08660
H829        H  0.00445698  0.18068460  0.27056101     0.08660
H830        H  0.01646865  0.33376279  0.40115815     0.08650
H831        H  0.96466876  0.32585608  0.40265658     0.08650
H832        H  0.98572960  0.35098128  0.36384817     0.05420
C833        C  0.86888477  0.26827371  0.47182368    -0.20380
C834        C  0.88816050  0.24684636  0.49964795    -0.06950
C835        C  0.86689894  0.22747224  0.52724401     0.13920
C836        C  0.82662409  0.22974511  0.52596910    -0.20440
C837        C  0.80573486  0.25039301  0.49733834    -0.06950
C838        C  0.82845117  0.27047968  0.46953078     0.13910
C839        C  0.81310228  0.29495092  0.43716024    -0.23780
H840        H  0.88615117  0.28343680  0.45123145     0.15200
H841        H  0.81084839  0.21480458  0.54783276     0.15220
C842        C  0.88654002  0.20535436  0.55890197    -0.23730
H843        H  0.83617405  0.30382462  0.41737335     0.05440
H844        H  0.80128739  0.32222009  0.44881110     0.08660
H845        H  0.79230794  0.27942254  0.41864861     0.08660
H846        H  0.90585522  0.22466437  0.57559231     0.08650
H847        H  0.90365312  0.18124574  0.54653581     0.08650
H848        H  0.86548813  0.19305210  0.57902961     0.05420
C849        C  0.97996745  0.72825167  0.67179294    -0.20380
C850        C  0.00702835  0.75082445  0.69299150    -0.06950
C851        C  0.03487975  0.77152378  0.67090029     0.13920
C852        C  0.03316927  0.76898340  0.63063185    -0.20440
C853        C  0.00627973  0.74631130  0.61117032    -0.06950
C854        C  0.97944630  0.72549441  0.63186690     0.13910
C855        C  0.94917484  0.70143021  0.61204626    -0.23780
H856        H  0.95826430  0.71251111  0.68704007     0.15200
H857        H  0.05333407  0.78502583  0.61363340     0.15220
C858        C  0.06712913  0.79639523  0.68660103    -0.23730
H859        H  0.92946429  0.68805951  0.63282105     0.05440
H860        H  0.96314750  0.67796526  0.59529296     0.08660
H861        H  0.93155777  0.71956293  0.59250508     0.08660
H862        H  0.08595992  0.78126046  0.70725321     0.08650
H863        H  0.05571967  0.82346084  0.69872978     0.08650
H864        H  0.08692346  0.80558871  0.66369305     0.05420
C865        C  0.02356368  0.77663538  0.32090583    -0.20380
C866        C  0.99456901  0.75407886  0.30289207    -0.06950
C867        C  0.96166754  0.74478322  0.32582782     0.13920
C868        C  0.96337575  0.75059764  0.36553084    -0.20440
C869        C  0.99566358  0.76615649  0.38323090    -0.06950
C870        C  0.02497524  0.78178622  0.36090685     0.13910
C871        C  0.05881250  0.80174639  0.37934564    -0.23780
H872        H  0.04679000  0.78839918  0.30459326     0.15200
H873        H  0.94016874  0.74072535  0.38344255     0.15220
C874        C  0.92555047  0.72583443  0.31082927    -0.23730
H875        H  0.07982359  0.81136248  0.35773530     0.05440
H876        H  0.07397792  0.78195107  0.39923708     0.08660
H877        H  0.04862113  0.82738847  0.39564445     0.08660
H878        H  0.93238212  0.69744914  0.29844796     0.08650
H879        H  0.91016494  0.74459894  0.29030606     0.08650
H880        H  0.90455628  0.72042992  0.33394313     0.05420
C881        C  0.72152874  0.75876770  0.43964550    -0.20380
C882        C  0.73665823  0.73715766  0.47045055    -0.06950
C883        C  0.72869083  0.69659598  0.46935087     0.13920
C884        C  0.70939618  0.68029225  0.43730747    -0.20440
C885        C  0.69794377  0.70229237  0.40570091    -0.06950
C886        C  0.70536136  0.74204624  0.40681158     0.13910
C887        C  0.69836931  0.76760300  0.37293363    -0.23780
H888        H  0.72228077  0.78956017  0.44007146     0.15200
H889        H  0.70339229  0.64981041  0.43681579     0.15220
C890        C  0.74015982  0.66915756  0.50092693    -0.23730
H891        H  0.71313191  0.79562460  0.37625272     0.05440
H892        H  0.66731103  0.77402939  0.37053971     0.08660
H893        H  0.70970914  0.75376783  0.34646284     0.08660
H894        H  0.76923221  0.67540175  0.51254729     0.08650
H895        H  0.74102460  0.63898101  0.49027479     0.08650
H896        H  0.71877622  0.67032982  0.52425921     0.05420
C897        C  0.76436089  0.72650266  0.57185238    -0.20380
C898        C  0.74083996  0.74282398  0.54253909    -0.06950
C899        C  0.69996478  0.74182854  0.54872086     0.13920
C900        C  0.68520870  0.72268969  0.58059692    -0.20440
C901        C  0.70907683  0.70662103  0.60891566    -0.06950
C902        C  0.74929909  0.71040914  0.60525094     0.13910
C903        C  0.77693203  0.69941152  0.63709393    -0.23780
H904        H  0.79511750  0.72477465  0.56913015     0.15200
H905        H  0.65424031  0.72059945  0.58348714     0.15220
C906        C  0.67006234  0.75998969  0.52270967    -0.23730
H907        H  0.80636229  0.71026887  0.63185480     0.05440
H908        H  0.77954732  0.66786730  0.63950084     0.08660
H909        H  0.76712344  0.71210358  0.66472669     0.08660
H910        H  0.68196749  0.77848618  0.50048687     0.08650
H911        H  0.65070696  0.77874420  0.54004278     0.08650
H912        H  0.65259359  0.73722289  0.50861535     0.05420
C913        C  0.82541633  0.77450644  0.52999030    -0.20380
C914        C  0.80411208  0.75158035  0.50321928    -0.06950
C915        C  0.82655870  0.72971762  0.47562116     0.13920
C916        C  0.86689928  0.73304494  0.47610815    -0.20440
C917        C  0.88638553  0.75724602  0.50166927    -0.06950
C918        C  0.86550977  0.77793373  0.52930359     0.13910
C919        C  0.88534824  0.80309603  0.55873582    -0.23780
H920        H  0.81002304  0.79104988  0.55154248     0.15200
H921        H  0.88394126  0.71682953  0.45551144     0.15220
C922        C  0.81121123  0.70348492  0.44406502    -0.23730
H923        H  0.86462882  0.81618882  0.57925761     0.05440
H924        H  0.90037028  0.82679238  0.54426792     0.08660
H925        H  0.90655301  0.78585667  0.57540696     0.08660
H926        H  0.79043687  0.71802452  0.42484722     0.08650
H927        H  0.79946462  0.67701476  0.45606948     0.08650
H928        H  0.83427587  0.69311672  0.42455836     0.05420
C929        C  0.77960341  0.13469707  0.47968411    -0.20380
C930        C  0.75324282  0.11751834  0.50386967    -0.06950
C931        C  0.72687469  0.14113561  0.52382615     0.13920
C932        C  0.73168568  0.18098976  0.52391052    -0.20440
C933        C  0.75629155  0.19951355  0.49784590    -0.06950
C934        C  0.77931952  0.17447375  0.47384193     0.13910
C935        C  0.80213061  0.18755714  0.43987194    -0.23780
H936        H  0.79858852  0.11654430  0.46265920     0.15200
H937        H  0.71422216  0.19668024  0.54382391     0.15220
C938        C  0.69289436  0.12504873  0.54449955    -0.23730
H939        H  0.79735406  0.16780303  0.41505430     0.05440
H940        H  0.83334123  0.18752805  0.44701237     0.08660
H941        H  0.79254828  0.21590795  0.42981011     0.08660
H942        H  0.70282696  0.10449462  0.56606350     0.08650
H943        H  0.67352188  0.11036259  0.52364782     0.08650
H944        H  0.67567587  0.14767246  0.55934905     0.05420
C945        C  0.77287430  0.86713354  0.47675150    -0.20380
C946        C  0.75297700  0.88645063  0.50563015    -0.06950
C947        C  0.73428792  0.86517849  0.53379141     0.13920
C948        C  0.73620072  0.82485956  0.53242402    -0.20440
C949        C  0.75459099  0.80391296  0.50226744    -0.06950
C950        C  0.77364568  0.82692200  0.47396416     0.13910
C951        C  0.79569288  0.81160099  0.43986802    -0.23780
H952        H  0.78753075  0.88386812  0.45534617     0.15200
H953        H  0.72366665  0.81043028  0.55629287     0.15220
C954        C  0.71380694  0.88499353  0.56659282    -0.23730
H955        H  0.78473597  0.82539286  0.41328408     0.05440
H956        H  0.79268101  0.78080166  0.43500945     0.08660
H957        H  0.82673234  0.81827358  0.44340641     0.08660
H958        H  0.68934263  0.90242260  0.55544774     0.08650
H959        H  0.73413150  0.90395638  0.58245334     0.08650
H960        H  0.70203350  0.86418247  0.58722143     0.05420
C961        C  0.74923394  0.03011701  0.68345147    -0.20380
C962        C  0.76189377  0.99667184  0.70302579    -0.06950
C963        C  0.78084651  0.96755045  0.67983389     0.13920
C964        C  0.77880219  0.97021904  0.63951712    -0.20440
C965        C  0.76108327  0.00130597  0.62137412    -0.06950
C966        C  0.74757557  0.03219076  0.64361516     0.13910
C967        C  0.73001405  0.06706514  0.62544833    -0.23780
H968        H  0.73606102  0.05353497  0.69933794     0.15200
H969        H  0.79124423  0.94754350  0.62181998     0.15220
C970        C  0.80498895  0.93383336  0.69345444    -0.23730
H971        H  0.72186340  0.08943165  0.64692617     0.05440
H972        H  0.70348751  0.05837782  0.60980582     0.08660
H973        H  0.75103764  0.07977056  0.60555483     0.08660
H974        H  0.79046318  0.90649357  0.68584331     0.08650
H975        H  0.81280448  0.93374098  0.72396050     0.08650
H976        H  0.83310832  0.93401121  0.67852746     0.05420
C977        C  0.76564161  0.97102603  0.37250588    -0.20380
C978        C  0.74884749  0.00224439  0.39128520    -0.06950
C979        C  0.73264125  0.03213588  0.36980309     0.13920
C980        C  0.73428964  0.03020926  0.32964086    -0.20440
C981        C  0.75179967  0.99908354  0.30913544    -0.06950
C982        C  0.76580367  0.96749046  0.33230403     0.13910
C983        C  0.77798536  0.92804948  0.31789806    -0.23780
H984        H  0.77740140  0.94809033  0.39001852     0.15200
H985        H  0.72096399  0.05337018  0.31375443     0.15220
C986        C  0.71423821  0.06647399  0.38921572    -0.23730
H987        H  0.78191433  0.90724031  0.34156055     0.05440
H988        H  0.80638969  0.92884205  0.30418063     0.08660
H989        H  0.75551143  0.91513036  0.29932255     0.08660
H990        H  0.73558077  0.08084927  0.40831434     0.08650
H991        H  0.68941914  0.05717457  0.40651582     0.08650
H992        H  0.70354528  0.08782066  0.36812620     0.05420
C993        C  0.30491322  0.69158615  0.42514851    -0.20380
C994        C  0.28865535  0.70440474  0.39096618    -0.06950
C995        C  0.26014076  0.73295470  0.39177756     0.13920
C996        C  0.24783878  0.74757582  0.42717654    -0.20440
C997        C  0.26277456  0.73464441  0.46301784    -0.06950
C998        C  0.29429021  0.70703136  0.46102193     0.13910
C999        C  0.32004764  0.69259310  0.49333058    -0.23780
H1000       H  0.32766306  0.67003832  0.42354009     0.15200
H1001       H  0.22495745  0.76873721  0.42659493     0.15220
C1002       C  0.24231768  0.74769364  0.35514534    -0.23730
H1003       H  0.35058922  0.69355244  0.48417688     0.05440
H1004       H  0.31322093  0.66221482  0.49946810     0.08660
H1005       H  0.32029097  0.70927837  0.52012578     0.08660
H1006       H  0.22853714  0.72366587  0.33912318     0.08650
H1007       H  0.26489971  0.76043036  0.33705277     0.08650
H1008       H  0.22001786  0.77008214  0.36072648     0.05420
C1009       C  0.27585085  0.76018200  0.56655875    -0.20380
C1010       C  0.25871851  0.73635028  0.53829830    -0.06950
C1011       C  0.25379089  0.69671451  0.54816962     0.13920
C1012       C  0.27159075  0.68221989  0.58144003    -0.20440
C1013       C  0.29010845  0.70612660  0.60824091    -0.06950
C1014       C  0.28977201  0.74614286  0.60155936     0.13910
C1015       C  0.30106838  0.77509503  0.63192277    -0.23780
H1016       H  0.27631095  0.79078512  0.56302118     0.15200
H1017       H  0.27054703  0.65168000  0.58677397     0.15220
C1018       C  0.23034236  0.66854867  0.52454005    -0.23730
H1019       H  0.28990400  0.80428206  0.62523720     0.05440
H1020       H  0.33271470  0.77732346  0.63349902     0.08660
H1021       H  0.28872972  0.76713368  0.65992806     0.08660
H1022       H  0.23872599  0.66821366  0.49407532     0.08650
H1023       H  0.19931064  0.67542597  0.52737041     0.08650
H1024       H  0.23398220  0.63865185  0.53478851     0.05420
C1025       C  0.17906801  0.72465910  0.47368845    -0.20380
C1026       C  0.19877018  0.74683540  0.50192218    -0.06950
C1027       C  0.17539195  0.76582302  0.53052745     0.13920
C1028       C  0.13536655  0.76683936  0.52607685    -0.20440
C1029       C  0.11693478  0.74752835  0.49616598    -0.06950
C1030       C  0.13872607  0.72476632  0.47055038     0.13910
C1031       C  0.11972396  0.70148152  0.43907746    -0.23780
H1032       H  0.19486695  0.70672035  0.45378635     0.15200
H1033       H  0.11789142  0.78248127  0.54675288     0.15220
C1034       C  0.19106289  0.78631583  0.56574479    -0.23730
H1035       H  0.14118945  0.68680403  0.42043683     0.05440
H1036       H  0.10171775  0.72046015  0.42074602     0.08660
H1037       H  0.10141968  0.67906036  0.45169946     0.08660
H1038       H  0.16805066  0.80095567  0.58249349     0.08650
H1039       H  0.21155334  0.80901631  0.55820248     0.08650
H1040       H  0.20424603  0.76518859  0.58549885     0.05420
C1041       C  0.28468201  0.13304427  0.50599694    -0.20380
C1042       C  0.25073723  0.11165723  0.50734412    -0.06950
C1043       C  0.21542919  0.13162618  0.51236833     0.13920
C1044       C  0.21496726  0.17170371  0.51252804    -0.20440
C1045       C  0.24829061  0.19410022  0.50680974    -0.06950
C1046       C  0.28425902  0.17351514  0.50575150     0.13910
C1047       C  0.32310634  0.19193943  0.50208340    -0.23780
H1048       H  0.31206608  0.11802758  0.50369584     0.15200
H1049       H  0.18757910  0.18520771  0.51820709     0.15220
C1050       C  0.17750273  0.11158121  0.51811291    -0.23730
H1051       H  0.34021624  0.18711181  0.52867449     0.05440
H1052       H  0.32182143  0.22274105  0.49650494     0.08660
H1053       H  0.33876297  0.17879001  0.47752458     0.08660
H1054       H  0.17963558  0.09238502  0.54326384     0.08650
H1055       H  0.16951522  0.09499943  0.49190475     0.08650
H1056       H  0.15342994  0.13206716  0.52366476     0.05420
C1057       C  0.27828693  0.01786464  0.67456542    -0.20380
C1058       C  0.25402784  0.99318125  0.69560159    -0.06950
C1059       C  0.23161339  0.96602687  0.67312371     0.13920
C1060       C  0.23269714  0.96756708  0.63269046    -0.20440
C1061       C  0.25631077  0.99293111  0.61336338    -0.06950
C1062       C  0.27973715  0.01813477  0.63455452     0.13910
C1063       C  0.30509512  0.04692334  0.61522539    -0.23780
H1064       H  0.29569506  0.03873368  0.68990829     0.15200
H1065       H  0.21521831  0.94811604  0.61555019     0.15220
C1066       C  0.20670885  0.93432175  0.68856172    -0.23730
H1067       H  0.31983964  0.06604503  0.63629632     0.05440
H1068       H  0.28744914  0.06527015  0.59587720     0.08660
H1069       H  0.32772703  0.03180588  0.59845846     0.08660
H1070       H  0.17944944  0.94593384  0.69984758     0.08650
H1071       H  0.22190567  0.91619943  0.70971609     0.08650
H1072       H  0.19770737  0.91386384  0.66557540     0.05420
C1073       C  0.22738101  0.99171207  0.31819086    -0.20380
C1074       C  0.26082796  0.00536965  0.29967609    -0.06950
C1075       C  0.29085827  0.01928764  0.32545568     0.13920
C1076       C  0.28796644  0.01408411  0.36516921    -0.20440
C1077       C  0.25465446  0.00057415  0.38224430    -0.06950
C1078       C  0.22350502  0.99010035  0.35829109     0.13910
C1079       C  0.18583384  0.97674745  0.37445481    -0.23780
H1080       H  0.20251375  0.98344990  0.30234787     0.15200
H1081       H  0.31157156  0.02342229  0.38351291     0.15220
C1082       C  0.32502772  0.04365893  0.31471346    -0.23730
H1083       H  0.16487476  0.96851020  0.35162899     0.05440
H1084       H  0.17235818  0.00020326  0.39163927     0.08660
H1085       H  0.19088031  0.95122935  0.39261325     0.08660
H1086       H  0.32125886  0.05867688  0.28738010     0.08650
H1087       H  0.35195307  0.02629029  0.31518672     0.08650
H1088       H  0.32869134  0.06747303  0.33591143     0.05420
C1089       C  0.28669939  0.85842391  0.49729572    -0.20380
C1090       C  0.25351518  0.88038113  0.48993599    -0.06950
C1091       C  0.21947361  0.86108100  0.47909797     0.13920
C1092       C  0.21851162  0.82117162  0.48087141    -0.20440
C1093       C  0.24987957  0.79833259  0.49437821    -0.06950
C1094       C  0.28590614  0.81797793  0.49770090     0.13910
C1095       C  0.32442692  0.79849069  0.50171618    -0.23780
H1096       H  0.31372613  0.87290071  0.50279354     0.15200
H1097       H  0.19216086  0.80807121  0.47099451     0.15220
C1098       C  0.18373274  0.88170559  0.46465471    -0.23730
H1099       H  0.34325476  0.80708788  0.47779077     0.05440
H1100       H  0.32235206  0.76739497  0.50063045     0.08660
H1101       H  0.33826472  0.80699419  0.52933536     0.08660
H1102       H  0.19123484  0.90051373  0.44043555     0.08650
H1103       H  0.17038896  0.89878880  0.48815037     0.08650
H1104       H  0.16138432  0.86153888  0.45396416     0.05420
C1105       C  0.40200880  0.29566083  0.25921983    -0.20380
C1106       C  0.39810955  0.29466924  0.29922763    -0.06950
C1107       C  0.42972492  0.28079330  0.32110478     0.13920
C1108       C  0.46101545  0.26338726  0.30221020    -0.20440
C1109       C  0.46432887  0.26217138  0.26166819    -0.06950
C1110       C  0.43622098  0.28445496  0.24091707     0.13910
C1111       C  0.44217708  0.30327159  0.20255581    -0.23780
H1112       H  0.37915388  0.30819043  0.24193277     0.15200
H1113       H  0.48317133  0.25002823  0.31966647     0.15220
C1114       C  0.43235017  0.28574074  0.36410371    -0.23730
H1115       H  0.43087875  0.33323761  0.20354484     0.05440
H1116       H  0.42596308  0.28788155  0.17963088     0.08660
H1117       H  0.47273770  0.30679399  0.19518510     0.08660
H1118       H  0.41574761  0.26330624  0.37868169     0.08650
H1119       H  0.42202654  0.31479898  0.37281349     0.08650
H1120       H  0.46260873  0.28293763  0.37438853     0.05420
C1121       C  0.53646196  0.30083759  0.26495176    -0.20380
C1122       C  0.53504758  0.26014385  0.26709398    -0.06950
C1123       C  0.56146807  0.24275849  0.29398469     0.13920
C1124       C  0.59146538  0.26479495  0.30995887    -0.20440
C1125       C  0.59292060  0.30485921  0.30660852    -0.06950
C1126       C  0.56310148  0.32318667  0.28569253     0.13910
C1127       C  0.55668039  0.36606498  0.28612282    -0.23780
H1128       H  0.51539870  0.31583681  0.24748978     0.15200
H1129       H  0.61364090  0.25020346  0.32646611     0.15220
C1130       C  0.55774687  0.20316270  0.31085775    -0.23730
H1131       H  0.52632741  0.37251185  0.29384596     0.05440
H1132       H  0.56221857  0.37772638  0.25721394     0.08660
H1133       H  0.57474512  0.38115824  0.30773205     0.08660
H1134       H  0.57197271  0.18123003  0.29254586     0.08650
H1135       H  0.52744306  0.19630741  0.31720933     0.08650
H1136       H  0.57271234  0.20136035  0.33911004     0.05420
C1137       C  0.43119420  0.71836078  0.23584351    -0.20380
C1138       C  0.45922209  0.73527796  0.26052677    -0.06950
C1139       C  0.45215415  0.73255856  0.30091967     0.13920
C1140       C  0.41730673  0.71703107  0.31380140    -0.20440
C1141       C  0.38805332  0.70506169  0.28839438    -0.06950
C1142       C  0.39498362  0.70708352  0.24864315     0.13910
C1143       C  0.36443807  0.70010391  0.21831462    -0.23780
H1144       H  0.43610221  0.71448720  0.20562272     0.15200
H1145       H  0.41288817  0.71422661  0.34435866     0.15220
C1146       C  0.48013349  0.74646177  0.33146487    -0.23730
H1147       H  0.36360699  0.72464944  0.19824099     0.05440
H1148       H  0.33507130  0.69817478  0.23012498     0.08660
H1149       H  0.37141736  0.67351867  0.20182369     0.08660
H1150       H  0.49003072  0.77589522  0.32544172     0.08650
H1151       H  0.50505449  0.72653023  0.33372053     0.08650
H1152       H  0.46677477  0.74748452  0.36027902     0.05420
C1153       C  0.55986095  0.75736275  0.28324515    -0.20380
C1154       C  0.53144532  0.73465416  0.26473690    -0.06950
C1155       C  0.53660574  0.69372836  0.26716920     0.13920
C1156       C  0.57002509  0.67842728  0.28488184    -0.20440
C1157       C  0.59961504  0.70204252  0.29881474    -0.06950
C1158       C  0.59495846  0.74209376  0.29570476     0.13910
C1159       C  0.62726728  0.77000663  0.30170371    -0.23780
H1160       H  0.55662915  0.78793265  0.28676926     0.15200
H1161       H  0.57327811  0.64758860  0.28753300     0.15220
C1162       C  0.50831903  0.66527325  0.25036659    -0.23730
H1163       H  0.62997132  0.78799429  0.27577463     0.05440
H1164       H  0.65541553  0.75546676  0.30547942     0.08660
H1165       H  0.62077904  0.78916648  0.32649422     0.08660
H1166       H  0.50079897  0.67252409  0.22033937     0.08650
H1167       H  0.48205456  0.66431182  0.26805631     0.08650
H1168       H  0.52041058  0.63563687  0.24988602     0.05420
C1169       C  0.47158832  0.13188473  0.26405255    -0.20380
C1170       C  0.50336437  0.11277262  0.24860659    -0.06950
C1171       C  0.53307471  0.13429901  0.23278964     0.13920
C1172       C  0.53072399  0.17447899  0.23380170    -0.20440
C1173       C  0.49925357  0.19521202  0.24999133    -0.06950
C1174       C  0.46781639  0.17226386  0.26365319     0.13910
C1175       C  0.42882354  0.18727352  0.27592177    -0.23780
H1176       H  0.44857124  0.11458488  0.27530718     0.15200
H1177       H  0.55443638  0.19016479  0.22201915     0.15220
C1178       C  0.56825230  0.11504248  0.21623605    -0.23730
H1179       H  0.40741772  0.16391726  0.27806233     0.05440
H1180       H  0.41635817  0.20719107  0.25456038     0.08660
H1181       H  0.43046817  0.19976655  0.30513378     0.08660
H1182       H  0.56002897  0.09610751  0.19174900     0.08650
H1183       H  0.58256592  0.09785789  0.23891325     0.08650
H1184       H  0.58932787  0.13616069  0.20570104     0.05420
C1185       C  0.63818869  0.02615012  0.23781326    -0.20380
C1186       C  0.61912000  0.99702021  0.25654184    -0.06950
C1187       C  0.64020812  0.97058510  0.27848406     0.13920
C1188       C  0.68037380  0.97234200  0.27851212    -0.20440
C1189       C  0.70104775  0.00130965  0.25911817    -0.06950
C1190       C  0.67800392  0.03125051  0.24174537     0.13910
C1191       C  0.69152822  0.07083175  0.23094522    -0.23780
H1192       H  0.62118560  0.04678063  0.22180228     0.15200
H1193       H  0.69607869  0.95052132  0.29416416     0.15220
C1194       C  0.62067472  0.94007810  0.30142695    -0.23730
H1195       H  0.66706532  0.09150579  0.22853307     0.05440
H1196       H  0.70472248  0.07061919  0.20229774     0.08660
H1197       H  0.71020667  0.08343012  0.25352611     0.08660
H1198       H  0.60217128  0.92225698  0.28246608     0.08650
H1199       H  0.60269536  0.95373389  0.32401107     0.08650
H1200       H  0.64180595  0.92077668  0.31581561     0.05420
C1201       C  0.37008410  0.02465050  0.22078874    -0.20380
C1202       C  0.38914541  0.99554372  0.24059254    -0.06950
C1203       C  0.36781473  0.96802922  0.26005813     0.13920
C1204       C  0.32786302  0.97198490  0.26177741    -0.20440
C1205       C  0.30743365  0.00272672  0.24419932    -0.06950
C1206       C  0.32979177  0.02919743  0.22200885     0.13910
C1207       C  0.31405374  0.06358383  0.20084299    -0.23780
H1208       H  0.38736887  0.04515205  0.20552966     0.15200
H1209       H  0.31206333  0.95092817  0.27782619     0.15220
C1210       C  0.38695677  0.93369996  0.27814624    -0.23730
H1211       H  0.33721385  0.08123276  0.18845847     0.05440
H1212       H  0.29829505  0.08322624  0.22044560     0.08660
H1213       H  0.29653882  0.05417701  0.17592438     0.08660
H1214       H  0.40729265  0.94286787  0.30111245     0.08650
H1215       H  0.40259134  0.91733859  0.25559121     0.08650
H1216       H  0.36576026  0.91415026  0.29111998     0.05420
C1217       C  0.47314600  0.86430280  0.26680201    -0.20380
C1218       C  0.50359157  0.88174363  0.24823705    -0.06950
C1219       C  0.53075757  0.85877838  0.22907441     0.13920
C1220       C  0.52774243  0.81883223  0.23085743    -0.20440
C1221       C  0.49662718  0.79977331  0.24888442    -0.06950
C1222       C  0.46698062  0.82446729  0.26459092     0.13910
C1223       C  0.42697040  0.81239893  0.27581193    -0.23780
H1224       H  0.45245138  0.88256068  0.28136596     0.15200
H1225       H  0.55000176  0.80193321  0.21704975     0.15220
C1226       C  0.56330214  0.87607604  0.20698448    -0.23730
H1227       H  0.40695625  0.83740280  0.27799890     0.05440
H1228       H  0.42700561  0.79979212  0.30467658     0.08660
H1229       H  0.41375667  0.79361450  0.25365910     0.08660
H1230       H  0.58057857  0.89504878  0.22598213     0.08650
H1231       H  0.55157377  0.89303236  0.18272204     0.08650
H1232       H  0.58287318  0.85372819  0.19487159     0.05420
C1233       C  0.45776901  0.29611670  0.74691322    -0.20380
C1234       C  0.46386285  0.25593916  0.74183143    -0.06950
C1235       C  0.43439485  0.23555619  0.72049338     0.13920
C1236       C  0.40194306  0.25596991  0.70696522    -0.20440
C1237       C  0.39823288  0.29602471  0.70979865    -0.06950
C1238       C  0.42734094  0.31643144  0.72959818     0.13910
C1239       C  0.42875778  0.35968799  0.73116267    -0.23780
H1240       H  0.47896619  0.31257508  0.76292881     0.15200
H1241       H  0.37886154  0.24013266  0.69319261     0.15220
C1242       C  0.43352287  0.19274075  0.71158483    -0.23730
H1243       H  0.45902223  0.36967974  0.73261925     0.05440
H1244       H  0.41388697  0.37056281  0.75719904     0.08660
H1245       H  0.41586259  0.37245416  0.70495687     0.08660
H1246       H  0.43938918  0.17457457  0.73672523     0.08650
H1247       H  0.45278679  0.18551458  0.68756363     0.08650
H1248       H  0.40471812  0.18334334  0.70131144     0.05420
C1249       C  0.53571360  0.28225479  0.71193477    -0.20380
C1250       C  0.53880793  0.25779591  0.74441944    -0.06950
C1251       C  0.57748490  0.24853937  0.75689591     0.13920
C1252       C  0.60930957  0.26465402  0.73837035    -0.20440
C1253       C  0.60473329  0.28984005  0.70780330    -0.06950
C1254       C  0.56761201  0.29869489  0.69442259     0.13910
C1255       C  0.56163344  0.32530206  0.66098467    -0.23780
H1256       H  0.50848431  0.28775649  0.69801271     0.15200
H1257       H  0.63824755  0.25773358  0.74820787     0.15220
C1258       C  0.58773772  0.22195248  0.78939847    -0.23730
H1259       H  0.53066406  0.32938160  0.65377805     0.05440
H1260       H  0.57624867  0.31331454  0.63525816     0.08660
H1261       H  0.57378927  0.35391683  0.66804802     0.08660
H1262       H  0.60339546  0.19641181  0.77794205     0.08650
H1263       H  0.56308077  0.21200899  0.80579212     0.08650
H1264       H  0.60676003  0.23713382  0.81026614     0.05420
C1265       C  0.53228701  0.25639885  0.13713270    -0.20380
C1266       C  0.50051453  0.24145399  0.11757988    -0.06950
C1267       C  0.47041815  0.22559166  0.13847926     0.13920
C1268       C  0.47212121  0.22660710  0.17870621    -0.20440
C1269       C  0.50319084  0.24326298  0.19975894    -0.06950
C1270       C  0.53531036  0.25622402  0.17746780     0.13910
C1271       C  0.57422320  0.26792638  0.19329508    -0.23780
H1272       H  0.55563114  0.26765036  0.12026694     0.15200
H1273       H  0.44820219  0.21480278  0.19417068     0.15220
C1274       C  0.43579311  0.20876756  0.11839793    -0.23730
H1275       H  0.59645278  0.26792144  0.17058621     0.05440
H1276       H  0.58527017  0.24746871  0.21487775     0.08660
H1277       H  0.57327730  0.29778842  0.20429022     0.08660
H1278       H  0.44484491  0.18437419  0.09968567     0.08650
H1279       H  0.42151340  0.23109954  0.10064290     0.08650
H1280       H  0.41440180  0.19799163  0.13905586     0.05420
C1281       C  0.63282098  0.28760994  0.00704992    -0.20380
C1282       C  0.61652383  0.25119048  0.00646231    -0.06950
C1283       C  0.64107770  0.21875227  0.00928619     0.13920
C1284       C  0.68116574  0.22403724  0.01058341    -0.20440
C1285       C  0.69824220  0.26075065  0.00842923    -0.06950
C1286       C  0.67233270  0.29337223  0.01083434     0.13910
C1287       C  0.68141208  0.33468063  0.02128365    -0.23780
H1288       H  0.61409648  0.31272957  0.00652951     0.15200
H1289       H  0.69959721  0.19878322  0.01073677     0.15220
C1290       C  0.62581632  0.17840813  0.00982457    -0.23730
H1291       H  0.66315301  0.34405486  0.04575125     0.05440
H1292       H  0.67439950  0.35355107  0.99668995     0.08660
H1293       H  0.71056207  0.34035316  0.03134037     0.08660
H1294       H  0.60996214  0.17216027  0.98270442     0.08650
H1295       H  0.60646570  0.17498139  0.03468325     0.08650
H1296       H  0.64932230  0.15672343  0.01244410     0.05420
C1297       C  0.36667980  0.22489703  0.02377642    -0.20380
C1298       C  0.38585339  0.24821792  0.99813374    -0.06950
C1299       C  0.36489276  0.26864682  0.97042355     0.13920
C1300       C  0.32480722  0.26685121  0.97054287    -0.20440
C1301       C  0.30416418  0.24821121  0.00002042    -0.06950
C1302       C  0.32633492  0.22392996  0.02532517     0.13910
C1303       C  0.31014404  0.19397011  0.05161926    -0.23780
H1304       H  0.38374630  0.20750435  0.04327943     0.15200
H1305       H  0.30893322  0.28285951  0.94898376     0.15220
C1306       C  0.38455176  0.29227648  0.94055791    -0.23730
H1307       H  0.33286145  0.17400815  0.06228574     0.05440
H1308       H  0.28925519  0.17552708  0.03617670     0.08660
H1309       H  0.29784320  0.20713602  0.07770365     0.08660
H1310       H  0.40461685  0.27385600  0.92383583     0.08650
H1311       H  0.40081290  0.31591757  0.95459645     0.08650
H1312       H  0.36358721  0.30537962  0.92020250     0.05420
C1313       C  0.46707912  0.24366318  0.86965390    -0.20380
C1314       C  0.49889359  0.25966150  0.88782173    -0.06950
C1315       C  0.52676491  0.27783673  0.86558886     0.13920
C1316       C  0.52416416  0.27543322  0.82523954    -0.20440
C1317       C  0.49626990  0.25220523  0.80621972    -0.06950
C1318       C  0.46448535  0.24034354  0.82968481     0.13910
C1319       C  0.42896690  0.21966786  0.81598118    -0.23780
H1320       H  0.44463756  0.23158972  0.88714933     0.15200
H1321       H  0.54562870  0.29033091  0.80915897     0.15220
C1322       C  0.56028250  0.29802360  0.88433743    -0.23730
H1323       H  0.42522970  0.19287654  0.83250435     0.05440
H1324       H  0.43001859  0.21050407  0.78635855     0.08660
H1325       H  0.40326967  0.23838614  0.82021110     0.08660
H1326       H  0.57676987  0.27756202  0.90252519     0.08650
H1327       H  0.54964219  0.32221680  0.90245465     0.08650
H1328       H  0.58024382  0.30977450  0.86282272     0.05420
C1329       C  0.51560946  0.13399480  0.72256921    -0.20380
C1330       C  0.50692978  0.11235614  0.75501130    -0.06950
C1331       C  0.50105902  0.13172892  0.79022286     0.13920
C1332       C  0.50327139  0.17151237  0.79164061    -0.20440
C1333       C  0.50672744  0.19464180  0.75869386    -0.06950
C1334       C  0.51675596  0.17454175  0.72389621     0.13910
C1335       C  0.52883726  0.19438104  0.68763360    -0.23780
H1336       H  0.52204818  0.11898826  0.69595649     0.15200
H1337       H  0.50325598  0.18365830  0.81997795     0.15220
C1338       C  0.49159067  0.11139162  0.82707132    -0.23730
H1339       H  0.53060879  0.17407620  0.66290148     0.05440
H1340       H  0.55799613  0.20651107  0.69143437     0.08660
H1341       H  0.50809297  0.21724576  0.67947287     0.08660
H1342       H  0.51638639  0.09341475  0.83650805     0.08650
H1343       H  0.46556607  0.09352597  0.82277236     0.08650
H1344       H  0.48518641  0.13174900  0.85099288     0.05420
C1345       C  0.64101478  0.99586973  0.78169622    -0.20380
C1346       C  0.62006949  0.99302995  0.74714862    -0.06950
C1347       C  0.64083883  0.98893361  0.71270081     0.13920
C1348       C  0.68114186  0.98950762  0.71374760    -0.20440
C1349       C  0.70327580  0.99476884  0.74801638    -0.06950
C1350       C  0.68164546  0.99656442  0.78290065     0.13910
C1351       C  0.69924377  0.00003223  0.82247845    -0.23780
H1352       H  0.62546104  0.99815920  0.80845744     0.15200
H1353       H  0.69488382  0.98360969  0.68676360     0.15220
C1354       C  0.62125981  0.98266483  0.67424042    -0.23730
H1355       H  0.69213814  0.97422756  0.83931605     0.05440
H1356       H  0.68720679  0.02582361  0.83727680     0.08660
H1357       H  0.73058370  0.00326459  0.82279410     0.08660
H1358       H  0.60385834  0.00836557  0.66652473     0.08650
H1359       H  0.60272961  0.95690112  0.67525279     0.08650
H1360       H  0.64216690  0.97787372  0.65071149     0.05420
C1361       C  0.36891262  0.96950609  0.73113549    -0.20380
C1362       C  0.38719620  0.99924221  0.75077661    -0.06950
C1363       C  0.36460144  0.02764992  0.76899183     0.13920
C1364       C  0.32405690  0.02597057  0.76636209    -0.20440
C1365       C  0.30429032  0.99543327  0.74726656    -0.06950
C1366       C  0.32869181  0.96640275  0.72964043     0.13910
C1367       C  0.31474730  0.93110217  0.70838124    -0.23780
H1368       H  0.38652584  0.94765135  0.71716030     0.15200
H1369       H  0.30862875  0.05000212  0.77852084     0.15220
C1370       C  0.38329896  0.06095379  0.78967591    -0.23730
H1371       H  0.32887997  0.90513179  0.72052079     0.05440
H1372       H  0.32220356  0.93302308  0.67756189     0.08660
H1373       H  0.28387924  0.92638931  0.71069367     0.08660
H1374       H  0.40205368  0.07662411  0.76966113     0.08650
H1375       H  0.40092962  0.05028141  0.81409641     0.08650
H1376       H  0.36169505  0.08160400  0.80130353     0.05420
C1377       C  0.43449520  0.75847531  0.72368306    -0.20380
C1378       C  0.46436676  0.73554438  0.73942924    -0.06950
C1379       C  0.46093192  0.69471006  0.73370185     0.13920
C1380       C  0.42681137  0.67957809  0.71756896    -0.20440
C1381       C  0.39558880  0.70326333  0.70748912    -0.06950
C1382       C  0.39924036  0.74327401  0.71231501     0.13910
C1383       C  0.36596957  0.77118908  0.70919886    -0.23780
H1384       H  0.43659285  0.78919059  0.72221719     0.15200
H1385       H  0.42438073  0.64886704  0.71292139     0.15220
C1386       C  0.49219632  0.66608740  0.74439198    -0.23730
H1387       H  0.36374019  0.78805291  0.73634567     0.05440
H1388       H  0.33793370  0.75692819  0.70520945     0.08660
H1389       H  0.37113703  0.79145407  0.68554135     0.08660
H1390       H  0.50357786  0.67174045  0.77368649     0.08650
H1391       H  0.51588904  0.66685195  0.72340261     0.08650
H1392       H  0.48133847  0.63619563  0.74394031     0.05420
C1393       C  0.56652121  0.72098348  0.76413895    -0.20380
C1394       C  0.53671900  0.73733625  0.74121879    -0.06950
C1395       C  0.54248331  0.73622232  0.70032780     0.13920
C1396       C  0.57643075  0.71987679  0.68527962    -0.20440
C1397       C  0.60568964  0.70504310  0.70884673    -0.06950
C1398       C  0.60125705  0.70727438  0.74895266     0.13910
C1399       C  0.63373522  0.69753188  0.77646497    -0.23780
H1400       H  0.56341498  0.71774460  0.79456178     0.15200
H1401       H  0.57988027  0.71787538  0.65444603     0.15220
C1402       C  0.51309709  0.75051649  0.67129607    -0.23730
H1403       H  0.62732426  0.70749893  0.80613242     0.05440
H1404       H  0.66050487  0.71199959  0.76757234     0.08660
H1405       H  0.63870464  0.66618069  0.77791053     0.08660
H1406       H  0.50248205  0.77972601  0.67838769     0.08650
H1407       H  0.48862131  0.73047388  0.66906270     0.08650
H1408       H  0.52540849  0.75199685  0.64207142     0.05420
C1409       C  0.52886084  0.81946439  0.73639915    -0.20380
C1410       C  0.49864334  0.80055615  0.75583986    -0.06950
C1411       C  0.47031156  0.82531015  0.77395528     0.13920
C1412       C  0.47128000  0.86504817  0.76828098    -0.20440
C1413       C  0.50011413  0.88214683  0.74722407    -0.06950
C1414       C  0.52942981  0.85933141  0.73125522     0.13910
C1415       C  0.56246705  0.87719403  0.71030716    -0.23780
H1416       H  0.55330535  0.80379729  0.72546081     0.15200
H1417       H  0.44985950  0.88352512  0.78171780     0.15220
C1418       C  0.43955782  0.81204993  0.80121760    -0.23730
H1419       H  0.58377240  0.85534378  0.70042229     0.05440
H1420       H  0.57763330  0.89782971  0.72955372     0.08660
H1421       H  0.55144465  0.89253533  0.68467295     0.08660
H1422       H  0.45265122  0.80413254  0.82907306     0.08650
H1423       H  0.42244212  0.78833575  0.78927844     0.08650
H1424       H  0.41841160  0.83521595  0.80800298     0.05420
C1425       C  0.52855958  0.73804770  0.13568110    -0.20380
C1426       C  0.49829436  0.75639783  0.11676716    -0.06950
C1427       C  0.46793567  0.77238232  0.13785701     0.13920
C1428       C  0.46854716  0.76917924  0.17777239    -0.20440
C1429       C  0.49857115  0.75003952  0.19844818    -0.06950
C1430       C  0.53058545  0.73589667  0.17585750     0.13910
C1431       C  0.56889998  0.72124506  0.19103453    -0.23780
H1432       H  0.55187620  0.72647944  0.11841313     0.15200
H1433       H  0.44508116  0.78242200  0.19343953     0.15220
C1434       C  0.43433470  0.79205510  0.11833537    -0.23730
H1435       H  0.59064721  0.71790609  0.16804121     0.05440
H1436       H  0.56618277  0.69213360  0.20268989     0.08660
H1437       H  0.58198455  0.74182889  0.21154367     0.08660
H1438       H  0.42035073  0.77188822  0.09772707     0.08650
H1439       H  0.44442334  0.81759802  0.10273173     0.08650
H1440       H  0.41227849  0.80187952  0.13921799     0.05420
C1441       C  0.52840540  0.77081365  0.82552506    -0.20380
C1442       C  0.49957164  0.74951642  0.80533092    -0.06950
C1443       C  0.47167475  0.73012545  0.82872382     0.13920
C1444       C  0.47489981  0.73276991  0.86892484    -0.20440
C1445       C  0.50283970  0.75491701  0.88732391    -0.06950
C1446       C  0.53023997  0.77388579  0.86551069     0.13910
C1447       C  0.56212195  0.79667561  0.88423687    -0.23780
H1448       H  0.54983995  0.78602488  0.80938955     0.15200
H1449       H  0.45431829  0.71819024  0.88673520     0.15220
C1450       C  0.43674905  0.70807038  0.81476984    -0.23730
H1451       H  0.58219100  0.80837054  0.86278772     0.05440
H1452       H  0.57901686  0.77800620  0.90392107     0.08660
H1453       H  0.54982451  0.82128614  0.90065133     0.08660
H1454       H  0.44523251  0.67985159  0.80280725     0.08650
H1455       H  0.41858295  0.72480747  0.79483374     0.08650
H1456       H  0.41703432  0.70100302  0.83851946     0.05420
C1457       C  0.31907270  0.78018370  0.99721652    -0.20380
C1458       C  0.30329267  0.74284576  0.00019173    -0.06950
C1459       C  0.33022895  0.71122964  0.99603296     0.13920
C1460       C  0.36959363  0.71820377  0.99868781    -0.20440
C1461       C  0.38490739  0.75507471  0.99915363    -0.06950
C1462       C  0.35917219  0.78671860  0.99709890     0.13910
C1463       C  0.37333370  0.82739872  0.99616984    -0.23780
H1464       H  0.29975732  0.80478407  0.99761631     0.15200
H1465       H  0.38897642  0.69358646  0.99806685     0.15220
C1466       C  0.32229158  0.66985860  0.98471597    -0.23730
H1467       H  0.34916149  0.84847781  0.99507032     0.05440
H1468       H  0.39115578  0.83153844  0.97031310     0.08660
H1469       H  0.39060454  0.83368523  0.02241768     0.08660
H1470       H  0.29353767  0.66368710  0.97382498     0.08650
H1471       H  0.32946541  0.65064993  0.00900538     0.08650
H1472       H  0.34102874  0.66135260  0.96030334     0.05420
C1473       C  0.63338467  0.73342622  0.97345725    -0.20380
C1474       C  0.61664139  0.75552481  0.00239970    -0.06950
C1475       C  0.64026010  0.77333990  0.03004040     0.13920
C1476       C  0.68041839  0.76819353  0.02818739    -0.20440
C1477       C  0.69875909  0.74682573  0.99820592    -0.06950
C1478       C  0.67329514  0.72902865  0.97035196     0.13910
C1479       C  0.68563097  0.70474986  0.93636601    -0.23780
H1480       H  0.61479104  0.71949078  0.95242042     0.15200
H1481       H  0.69658968  0.78021625  0.05178239     0.15220
C1482       C  0.62303857  0.79609908  0.06282848    -0.23730
H1483       H  0.67215965  0.71616908  0.90975361     0.05440
H1484       H  0.67613807  0.67469234  0.94020086     0.08660
H1485       H  0.71655480  0.70461057  0.93134391     0.08660
H1486       H  0.60326954  0.77769475  0.07922406     0.08650
H1487       H  0.60680079  0.82120549  0.05156451     0.08650
H1488       H  0.64543728  0.80705728  0.08297141     0.05420
C1489       C  0.29105399  0.42557622  0.31539998    -0.20380
C1490       C  0.28932044  0.39037313  0.29623386    -0.06950
C1491       C  0.26750189  0.38729655  0.26229660     0.13920
C1492       C  0.25071776  0.42047374  0.24656963    -0.20440
C1493       C  0.25710319  0.45762391  0.26218433    -0.06950
C1494       C  0.27325148  0.45868495  0.30058568     0.13910
C1495       C  0.27141093  0.49165111  0.32927729    -0.23780
H1496       H  0.30538673  0.42687296  0.34318638     0.15200
H1497       H  0.23458682  0.41719618  0.22044513     0.15220
C1498       C  0.26230033  0.34903748  0.24242340    -0.23730
H1499       H  0.26022514  0.48093865  0.35688734     0.05440
H1500       H  0.25200070  0.51549378  0.32203927     0.08660
H1501       H  0.30078265  0.50292755  0.33466482     0.08660
H1502       H  0.24816319  0.32879611  0.26208949     0.08650
H1503       H  0.29077319  0.33709427  0.23398409     0.08650
H1504       H  0.24419547  0.35151808  0.21612431     0.05420
C1505       C  0.23371387  0.56352679  0.26339137    -0.20380
C1506       C  0.25879329  0.53200628  0.25541671    -0.06950
C1507       C  0.29924905  0.53896304  0.26087183     0.13920
C1508       C  0.31158527  0.57281718  0.27910484    -0.20440
C1509       C  0.28622735  0.60266289  0.28849430    -0.06950
C1510       C  0.24682737  0.59854683  0.27905596     0.13910
C1511       C  0.21866772  0.63161729  0.28305241    -0.23780
H1512       H  0.20360236  0.56195870  0.25580774     0.15200
H1513       H  0.34194947  0.57647441  0.28544336     0.15220
C1514       C  0.33086379  0.51225287  0.24737875    -0.23730
H1515       H  0.19007425  0.62458738  0.27044593     0.05440
H1516       H  0.22969138  0.65706109  0.26788615     0.08660
H1517       H  0.21397105  0.63897823  0.31362454     0.08660
H1518       H  0.32970970  0.50951817  0.21583377     0.08650
H1519       H  0.32972121  0.48426966  0.26165075     0.08650
H1520       H  0.35997422  0.52354656  0.25412958     0.05420
C1521       C  0.73332091  0.46334597  0.29813959    -0.20380
C1522       C  0.73446685  0.46362407  0.25742961    -0.06950
C1523       C  0.71380676  0.43308823  0.23790564     0.13920
C1524       C  0.69996424  0.40227323  0.25927422    -0.20440
C1525       C  0.69858448  0.40321824  0.29929764    -0.06950
C1526       C  0.71378985  0.43549717  0.31883892     0.13910
C1527       C  0.70850706  0.44307819  0.36115300    -0.23780
H1528       H  0.74720995  0.48611577  0.31440046     0.15200
H1529       H  0.68799041  0.37772210  0.24411145     0.15220
C1530       C  0.70141567  0.43138350  0.19614169    -0.23730
H1531       H  0.69654436  0.47248830  0.36547872     0.05440
H1532       H  0.73676095  0.44109579  0.37617810     0.08660
H1533       H  0.68789660  0.42342374  0.37455210     0.08660
H1534       H  0.72211813  0.41379090  0.17925145     0.08650
H1535       H  0.69591471  0.45962950  0.18331416     0.08650
H1536       H  0.67306878  0.41704918  0.19310494     0.05420
C1537       C  0.75935145  0.56173241  0.28198562    -0.20380
C1538       C  0.73625886  0.53527341  0.26085965    -0.06950
C1539       C  0.69532656  0.54140283  0.26320294     0.13920
C1540       C  0.68051147  0.57347738  0.28330799    -0.20440
C1541       C  0.70423909  0.60124224  0.30045109    -0.06950
C1542       C  0.74450672  0.59548516  0.29884848     0.13910
C1543       C  0.77281252  0.62541126  0.31257169    -0.23780
H1544       H  0.78973932  0.55699335  0.28599859     0.15200
H1545       H  0.64958092  0.57709278  0.28543664     0.15220
C1546       C  0.66593035  0.51545550  0.24428118    -0.23730
H1547       H  0.80146103  0.62089499  0.29924751     0.05440
H1548       H  0.77720481  0.62369167  0.34400959     0.08660
H1549       H  0.76280317  0.65458204  0.30438159     0.08660
H1550       H  0.67257086  0.51087904  0.21369008     0.08650
H1551       H  0.63649559  0.52815678  0.24509394     0.08650
H1552       H  0.66404340  0.48789365  0.25950826     0.05420
C1553       C  0.13265397  0.48202513  0.21020433    -0.20380
C1554       C  0.11465332  0.49392029  0.24387149    -0.06950
C1555       C  0.13786046  0.50058776  0.27686951     0.13920
C1556       C  0.17822131  0.49740218  0.27413975    -0.20440
C1557       C  0.19718904  0.48926532  0.23919167    -0.06950
C1558       C  0.17254821  0.47673913  0.20781403     0.13910
C1559       C  0.18390592  0.45462346  0.17188265    -0.23780
H1560       H  0.11495617  0.47436083  0.18551024     0.15200
H1561       H  0.19513370  0.50322658  0.29948962     0.15220
C1562       C  0.12084784  0.51207921  0.31498889    -0.23730
H1563       H  0.16637214  0.42815642  0.16954053     0.05440
H1564       H  0.21346495  0.44410592  0.17055616     0.08660
H1565       H  0.17768029  0.47221101  0.14617020     0.08660
H1566       H  0.10238076  0.48874796  0.32564589     0.08650
H1567       H  0.10368198  0.53894303  0.31189905     0.08650
H1568       H  0.14342470  0.51746447  0.33712529     0.05420
C1569       C  0.00000260  0.62941265  0.28308034    -0.20380
C1570       C  0.00059628  0.61358036  0.24625917    -0.06950
C1571       C  0.00459416  0.63842181  0.21471591     0.13920
C1572       C  0.00654519  0.67836474  0.22134201    -0.20440
C1573       C  0.00280809  0.69494430  0.25847191    -0.06950
C1574       C  0.00406942  0.66856548  0.29027990     0.13910
C1575       C  0.01344057  0.67644103  0.33227570    -0.23780
H1576       H  0.99863338  0.61045736  0.30750944     0.15200
H1577       H  0.00825960  0.69720561  0.19690577     0.15220
C1578       C  0.00517091  0.62368476  0.17393018    -0.23730
H1579       H  0.03621109  0.65602339  0.34205537     0.05440
H1580       H  0.98757260  0.67161886  0.34998554     0.08660
H1581       H  0.02582410  0.70421126  0.33950505     0.08660
H1582       H  0.97813121  0.60804888  0.16741347     0.08650
H1583       H  0.03037712  0.60434308  0.16964811     0.08650
H1584       H  0.00734647  0.64738554  0.15304635     0.05420
C1585       C  0.03175006  0.36585749  0.25332199    -0.20380
C1586       C  0.99950870  0.38332559  0.23708629    -0.06950
C1587       C  0.97029737  0.36071270  0.22062361     0.13920
C1588       C  0.97262727  0.32060474  0.22377444    -0.20440
C1589       C  0.00307640  0.30224268  0.24410697    -0.06950
C1590       C  0.03499056  0.32595808  0.25591448     0.13910
C1591       C  0.07244364  0.31086391  0.27270784    -0.23780
H1592       H  0.05476924  0.38393649  0.26417667     0.15200
H1593       H  0.94980851  0.30406970  0.21077395     0.15220
C1594       C  0.93581307  0.37891533  0.20130262    -0.23730
H1595       H  0.09157437  0.33435113  0.28278682     0.05440
H1596       H  0.08884830  0.29510863  0.25034527     0.08660
H1597       H  0.06762483  0.29265331  0.29791989     0.08660
H1598       H  0.94519041  0.39566529  0.17623246     0.08650
H1599       H  0.92076369  0.39833933  0.22184849     0.08650
H1600       H  0.91493047  0.35709625  0.19094080     0.05420
C1601       C  0.82095136  0.52898575  0.22939938    -0.20380
C1602       C  0.80059560  0.49784807  0.24573397    -0.06950
C1603       C  0.82401323  0.46607785  0.25917173     0.13920
C1604       C  0.86442869  0.46867830  0.25797704    -0.20440
C1605       C  0.88292504  0.49970863  0.24163413    -0.06950
C1606       C  0.86108024  0.53032140  0.22723301     0.13910
C1607       C  0.88003215  0.56492550  0.21024592    -0.23780
H1608       H  0.80491233  0.55275491  0.21740347     0.15200
H1609       H  0.88222617  0.44534656  0.26876879     0.15220
C1610       C  0.80940466  0.42773509  0.27249065    -0.23730
H1611       H  0.85858820  0.58702637  0.20135258     0.05440
H1612       H  0.89669830  0.55622667  0.18452248     0.08660
H1613       H  0.89972708  0.57824674  0.23175198     0.08660
H1614       H  0.78973249  0.41464241  0.25102996     0.08650
H1615       H  0.79654390  0.43048133  0.30122991     0.08650
H1616       H  0.83301571  0.40629637  0.27609476     0.05420
C1617       C  0.02687055  0.63635656  0.71653491    -0.20380
C1618       C  0.99652864  0.61831758  0.73439184    -0.06950
C1619       C  0.97092704  0.64029767  0.75680863     0.13920
C1620       C  0.97542301  0.68028192  0.75934379    -0.20440
C1621       C  0.00632494  0.69989702  0.74169544    -0.06950
C1622       C  0.03335438  0.67579703  0.72092694     0.13910
C1623       C  0.06918069  0.68941779  0.70129693    -0.23780
H1624       H  0.04657409  0.61912479  0.69946985     0.15200
H1625       H  0.95284711  0.69544325  0.77406564     0.15220
C1626       C  0.93739045  0.62190715  0.77654669    -0.23730
H1627       H  0.06619464  0.68517647  0.66978730     0.05440
H1628       H  0.09445970  0.67254221  0.71160422     0.08660
H1629       H  0.07586178  0.71946929  0.70710201     0.08660
H1630       H  0.94802271  0.60164733  0.79864655     0.08650
H1631       H  0.91944327  0.60617253  0.75518071     0.08650
H1632       H  0.91869036  0.64345212  0.79118659     0.05420
C1633       C  0.02231573  0.32452496  0.71815193    -0.20380
C1634       C  0.99433781  0.30658771  0.74159356    -0.06950
C1635       C  0.96650242  0.33186566  0.75972766     0.13920
C1636       C  0.96835741  0.37163277  0.75321125    -0.20440
C1637       C  0.99593130  0.38789119  0.72963049    -0.06950
C1638       C  0.02338003  0.36415606  0.71198843     0.13910
C1639       C  0.05481694  0.38063323  0.68784892    -0.23780
H1640       H  0.04425426  0.30694532  0.70449335     0.15200
H1641       H  0.94788463  0.39087062  0.76705065     0.15220
C1642       C  0.93433151  0.32011328  0.78611273    -0.23730
H1643       H  0.07476828  0.35799116  0.67696473     0.05440
H1644       H  0.07190730  0.40141419  0.70520261     0.08660
H1645       H  0.04199353  0.39548012  0.66273223     0.08660
H1646       H  0.91516166  0.29835899  0.77317150     0.08650
H1647       H  0.91482965  0.34456301  0.79330156     0.08650
H1648       H  0.94598030  0.31086633  0.81402010     0.05420
C1649       C  0.70298320  0.39926987  0.74449873    -0.20380
C1650       C  0.69978236  0.39689836  0.70445402    -0.06950
C1651       C  0.71524605  0.42689050  0.68278676     0.13920
C1652       C  0.73646645  0.45571557  0.70134001    -0.20440
C1653       C  0.73911932  0.45978145  0.74194486    -0.06950
C1654       C  0.72215256  0.42937617  0.76389573     0.13910
C1655       C  0.72519316  0.42296602  0.80675626    -0.23780
H1656       H  0.69183714  0.37585721  0.76122057     0.15200
H1657       H  0.74893829  0.47753256  0.68347633     0.15220
C1658       C  0.70791464  0.43134646  0.64033877    -0.23730
H1659       H  0.69706896  0.42957034  0.82031657     0.05440
H1660       H  0.74811286  0.43820605  0.82197066     0.08660
H1661       H  0.73231272  0.39234430  0.81238659     0.08660
H1662       H  0.68623166  0.41105139  0.62881866     0.08650
H1663       H  0.73529709  0.42756720  0.62450047     0.08650
H1664       H  0.69629101  0.46061278  0.63481019     0.05420
C1665       C  0.70284044  0.53147220  0.72167208    -0.20380
C1666       C  0.73942703  0.53457850  0.74033324    -0.06950
C1667       C  0.75355709  0.57316101  0.74504032     0.13920
C1668       C  0.73561547  0.60358888  0.72529886    -0.20440
C1669       C  0.70239738  0.59838774  0.70320841    -0.06950
C1670       C  0.68507956  0.56217057  0.70230090     0.13910
C1671       C  0.64813111  0.55559347  0.68028568    -0.23780
H1672       H  0.68703064  0.50499078  0.72215365     0.15200
H1673       H  0.74722605  0.63233129  0.72767097     0.15220
C1674       C  0.78671941  0.58434681  0.77096086    -0.23730
H1675       H  0.63911697  0.52511168  0.68119059     0.05440
H1676       H  0.65210010  0.56330042  0.64977568     0.08660
H1677       H  0.62460216  0.57344197  0.69260355     0.08660
H1678       H  0.81414153  0.57297144  0.76000762     0.08650
H1679       H  0.78132487  0.57567219  0.80079043     0.08650
H1680       H  0.79057070  0.61595432  0.77240744     0.05420
C1681       C  0.81638807  0.51735748  0.71141699    -0.20380
C1682       C  0.80213296  0.49144928  0.73889886    -0.06950
C1683       C  0.82756419  0.46034375  0.74931094     0.13920
C1684       C  0.86692566  0.46332816  0.74180799    -0.20440
C1685       C  0.88149624  0.49482304  0.72279307    -0.06950
C1686       C  0.85602468  0.52050882  0.70463171     0.13910
C1687       C  0.87064110  0.55253467  0.68022099    -0.23780
H1688       H  0.79733013  0.53726606  0.69703582     0.15200
H1689       H  0.88697358  0.44199510  0.75287750     0.15220
C1690       C  0.81559834  0.42504144  0.77054602    -0.23730
H1691       H  0.84676577  0.57080661  0.66906245     0.05440
H1692       H  0.88649752  0.54034219  0.65534611     0.08660
H1693       H  0.89023744  0.57108774  0.69742012     0.08660
H1694       H  0.79432182  0.40853706  0.75347691     0.08650
H1695       H  0.80493037  0.43290488  0.79916466     0.08650
H1696       H  0.84013305  0.40496010  0.77553584     0.05420
C1697       C  0.77102220  0.47002952  0.17488872    -0.20380
C1698       C  0.75217308  0.50074603  0.19475044    -0.06950
C1699       C  0.73806244  0.53196595  0.17154019     0.13920
C1700       C  0.73776863  0.52762364  0.13142451    -0.20440
C1701       C  0.75454681  0.49600671  0.11314376    -0.06950
C1702       C  0.77224424  0.46725505  0.13490626     0.13910
C1703       C  0.79135362  0.43298146  0.11602748    -0.23780
H1704       H  0.78421193  0.44703260  0.19109608     0.15200
H1705       H  0.72564092  0.55008573  0.11375353     0.15220
C1706       C  0.72625687  0.57149996  0.18597767    -0.23730
H1707       H  0.80312365  0.41252695  0.13745113     0.05440
H1708       H  0.81551745  0.44252541  0.09797065     0.08660
H1709       H  0.77008423  0.41748088  0.09776896     0.08660
H1710       H  0.74778151  0.58355146  0.20620538     0.08650
H1711       H  0.69711525  0.57137852  0.19818953     0.08650
H1712       H  0.72441937  0.59255863  0.16231725     0.05420
C1713       C  0.79011699  0.50177071  0.86557735    -0.20380
C1714       C  0.75398872  0.50215598  0.88273615    -0.06950
C1715       C  0.72100722  0.50653147  0.85896416     0.13920
C1716       C  0.72536808  0.50735780  0.81881882    -0.20440
C1717       C  0.76170609  0.50308397  0.80091494    -0.06950
C1718       C  0.79495733  0.50507204  0.82601658     0.13910
C1719       C  0.83612958  0.51414476  0.81579725    -0.23780
H1720       H  0.81570799  0.50066611  0.88363467     0.15200
H1721       H  0.69967398  0.50849057  0.80101048     0.15220
C1722       C  0.68100366  0.50932236  0.87513905    -0.23730
H1723       H  0.84662217  0.53796157  0.83452848     0.05440
H1724       H  0.84070509  0.52471695  0.78695680     0.08660
H1725       H  0.85490797  0.48872217  0.82101260     0.08660
H1726       H  0.67890748  0.53439295  0.89499489     0.08650
H1727       H  0.67416459  0.48255775  0.89053875     0.08650
H1728       H  0.65885173  0.51315866  0.85228639     0.05420
C1729       C  0.72278806  0.67358967  0.02211814    -0.20380
C1730       C  0.74798217  0.69359812  0.99744780    -0.06950
C1731       C  0.77017192  0.66997182  0.97096843     0.13920
C1732       C  0.76928543  0.62990438  0.97441459    -0.20440
C1733       C  0.74523461  0.61159786  0.99993310    -0.06950
C1734       C  0.72072837  0.63354926  0.02329284     0.13910
C1735       C  0.69343077  0.61509639  0.05067332    -0.23780
H1736       H  0.70471321  0.68971667  0.04180501     0.15200
H1737       H  0.78715466  0.61204161  0.95593491     0.15220
C1738       C  0.79395962  0.68319424  0.93734356    -0.23730
H1739       H  0.67717108  0.63672831  0.06786903     0.05440
H1740       H  0.70989736  0.59670941  0.07077511     0.08660
H1741       H  0.67220051  0.59746440  0.03451758     0.08660
H1742       H  0.82229725  0.69369462  0.94696076     0.08650
H1743       H  0.77849450  0.70376939  0.91880146     0.08650
H1744       H  0.80110616  0.65913248  0.91736715     0.05420
C1745       C  0.78732863  0.36293114  0.01957703    -0.20380
C1746       C  0.76543577  0.38262210  0.99207019    -0.06950
C1747       C  0.74687374  0.36182405  0.96274016     0.13920
C1748       C  0.74458396  0.32199989  0.96586410    -0.20440
C1749       C  0.75911809  0.30220002  0.99840395    -0.06950
C1750       C  0.78645720  0.32260682  0.02178977     0.13910
C1751       C  0.81646790  0.30475460  0.04780484    -0.23780
H1752       H  0.80488659  0.37913869  0.03978533     0.15200
H1753       H  0.72774877  0.30702599  0.94452739     0.15220
C1754       C  0.72805616  0.38155244  0.92898878    -0.23730
H1755       H  0.84510255  0.31655552  0.04075471     0.05440
H1756       H  0.81980581  0.27348406  0.04448216     0.08660
H1757       H  0.81033585  0.31217878  0.07819816     0.08660
H1758       H  0.74959941  0.39919379  0.91403057     0.08650
H1759       H  0.70398752  0.40027531  0.93876333     0.08650
H1760       H  0.71609124  0.36057556  0.90791903     0.05420
C1761       C  0.27005941  0.43519668  0.76400051    -0.20380
C1762       C  0.25483772  0.46389380  0.73933914    -0.06950
C1763       C  0.25511640  0.45495997  0.69894745     0.13920
C1764       C  0.27418970  0.42169620  0.68561268    -0.20440
C1765       C  0.28853746  0.39357108  0.71052636    -0.06950
C1766       C  0.28422457  0.39973567  0.75039526     0.13910
C1767       C  0.29105688  0.36874518  0.77965327    -0.23780
H1768       H  0.26793739  0.43826051  0.79470398     0.15200
H1769       H  0.27680172  0.41700569  0.65497349     0.15220
C1770       C  0.23403449  0.47839703  0.66883995    -0.23730
H1771       H  0.26515295  0.36618340  0.79786311     0.05440
H1772       H  0.31600764  0.37639085  0.79825583     0.08660
H1773       H  0.29587924  0.34000020  0.76658726     0.08660
H1774       H  0.24099988  0.50919976  0.67036578     0.08650
H1775       H  0.20259221  0.47451666  0.67162077     0.08650
H1776       H  0.24118337  0.46867344  0.63928205     0.05420
C1777       C  0.28856472  0.53686391  0.71875214    -0.20380
C1778       C  0.25515357  0.53928540  0.74195286    -0.06950
C1779       C  0.24272942  0.57753714  0.75282966     0.13920
C1780       C  0.25963529  0.60969607  0.73582418    -0.20440
C1781       C  0.29051858  0.60590507  0.71081951    -0.06950
C1782       C  0.30570805  0.56921601  0.70282438     0.13910
C1783       C  0.33992812  0.56408704  0.67688867    -0.23780
H1784       H  0.30223479  0.50958018  0.71278006     0.15200
H1785       H  0.24947497  0.63840673  0.74298350     0.15220
C1786       C  0.21330885  0.58626008  0.78353962    -0.23730
H1787       H  0.34782519  0.53335180  0.67275982     0.05440
H1788       H  0.36524738  0.57900505  0.68945422     0.08660
H1789       H  0.33319334  0.57627570  0.64828539     0.08660
H1790       H  0.22527816  0.57856066  0.81200751     0.08650
H1791       H  0.18577850  0.57154076  0.77824674     0.08650
H1792       H  0.20619279  0.61738262  0.78540033     0.05420
C1793       C  0.17425618  0.52756207  0.72064481    -0.20380
C1794       C  0.19194472  0.49816723  0.74257451    -0.06950
C1795       C  0.16778386  0.46670592  0.75343985     0.13920
C1796       C  0.12781326  0.47033516  0.74969240    -0.20440
C1797       C  0.11090696  0.50247370  0.73316068    -0.06950
C1798       C  0.13414839  0.53061884  0.71682985     0.13910
C1799       C  0.11666899  0.56514957  0.69752560    -0.23780
H1800       H  0.19128823  0.54949066  0.70759197     0.15200
H1801       H  0.10928589  0.44776773  0.75982990     0.15220
C1802       C  0.18233978  0.42956779  0.77057654    -0.23730
H1803       H  0.13896749  0.58507109  0.68715742     0.05440
H1804       H  0.09849640  0.58105256  0.71843944     0.08660
H1805       H  0.09885231  0.55602251  0.67252302     0.08660
H1806       H  0.15849289  0.41050717  0.77904097     0.08650
H1807       H  0.19956787  0.43472272  0.79690230     0.08650
H1808       H  0.19896872  0.41309083  0.74889454     0.05420
C1809       C  0.23586496  0.52699326  0.17555521    -0.20380
C1810       C  0.25477186  0.49639115  0.19509317    -0.06950
C1811       C  0.27926540  0.47180216  0.17215847     0.13920
C1812       C  0.27748835  0.47478211  0.13183825    -0.20440
C1813       C  0.25360402  0.50172045  0.11362974    -0.06950
C1814       C  0.23409570  0.52934292  0.13574540     0.13910
C1815       C  0.21040961  0.56097072  0.11762963    -0.23780
H1816       H  0.21845529  0.54738293  0.19142674     0.15200
H1817       H  0.29418268  0.45496807  0.11425007     0.15220
C1818       C  0.30735948  0.44182582  0.18652241    -0.23730
H1819       H  0.19843788  0.58123133  0.13937952     0.05440
H1820       H  0.18581022  0.54863220  0.10132705     0.08660
H1821       H  0.22860871  0.57761603  0.09805046     0.08660
H1822       H  0.29744465  0.41279342  0.17768838     0.08650
H1823       H  0.31248442  0.44236715  0.21752559     0.08650
H1824       H  0.33595877  0.44664524  0.17351892     0.05420
C1825       C  0.25426001  0.63338626  0.03744164    -0.20380
C1826       C  0.23518684  0.61681417  0.00629098    -0.06950
C1827       C  0.21530638  0.64065983  0.98027373     0.13920
C1828       C  0.21919985  0.68084732  0.98362634    -0.20440
C1829       C  0.24513055  0.69768419  0.01049249    -0.06950
C1830       C  0.25852214  0.67322464  0.04098235     0.13910
C1831       C  0.27979369  0.68697376  0.07636833    -0.23780
H1832       H  0.26775042  0.61465926  0.05834160     0.15200
H1833       H  0.20381945  0.69850035  0.96325675     0.15220
C1834       C  0.19222032  0.62378542  0.94753548    -0.23730
H1835       H  0.28754907  0.66304574  0.09585025     0.05440
H1836       H  0.26143279  0.70660179  0.09355292     0.08660
H1837       H  0.30722909  0.70005271  0.06851827     0.08660
H1838       H  0.16832227  0.60647102  0.95890263     0.08650
H1839       H  0.21102042  0.60512834  0.92950609     0.08650
H1840       H  0.17957936  0.64643059  0.92897381     0.05420
C1841       C  0.21803246  0.36418358  0.99764117    -0.20380
C1842       C  0.25185334  0.38595870  0.99883409    -0.06950
C1843       C  0.28673718  0.36675082  0.00685675     0.13920
C1844       C  0.28694539  0.32682731  0.01019513    -0.20440
C1845       C  0.25408634  0.30304790  0.00371104    -0.06950
C1846       C  0.21823408  0.32414236  0.00383429     0.13910
C1847       C  0.18052899  0.30966153  0.01899338    -0.23780
H1848       H  0.19053883  0.37908536  0.99561018     0.15200
H1849       H  0.31370614  0.31476430  0.02047494     0.15220
C1850       C  0.32412830  0.38774826  0.01371707    -0.23730
H1851       H  0.17055404  0.32902467  0.04251811     0.05440
H1852       H  0.18219252  0.28116779  0.03217845     0.08660
H1853       H  0.15817541  0.31022249  0.99600822     0.08660
H1854       H  0.32091262  0.40842844  0.03798923     0.08650
H1855       H  0.33252562  0.40298795  0.98735163     0.08650
H1856       H  0.34831516  0.36799734  0.02108063     0.05420
C1857       C  0.27176461  0.50458425  0.86299685    -0.20380
C1858       C  0.23721409  0.50416294  0.88360893    -0.06950
C1859       C  0.20212259  0.50642681  0.86316464     0.13920
C1860       C  0.20262984  0.50673252  0.82313949    -0.20440
C1861       C  0.23702627  0.50384371  0.80137496    -0.06950
C1862       C  0.27240563  0.50593400  0.82270595     0.13910
C1863       C  0.31127041  0.51131838  0.80438226    -0.23780
H1864       H  0.29885003  0.50474349  0.87865847     0.15200
H1865       H  0.17510660  0.51097669  0.80941015     0.15220
C1866       C  0.16360697  0.50956186  0.88283467    -0.23730
H1867       H  0.33517126  0.50912716  0.82564581     0.05440
H1868       H  0.31292079  0.54050832  0.79228753     0.08660
H1869       H  0.31722899  0.48955834  0.78188197     0.08660
H1870       H  0.16306091  0.53522114  0.90204211     0.08650
H1871       H  0.15823019  0.48320228  0.89945663     0.08650
H1872       H  0.13932039  0.51265903  0.86211530     0.05420
loop_ 
_geom_bond_atom_site_label_1 
_geom_bond_atom_site_label_2 
_geom_bond_distance 
_geom_bond_site_symmetry_2 
_ccdc_geom_bond_type 
O1            V9   1.898       .  S
O1           C11   1.263   1_554  A
O2            V9   1.900       .  S
O2           C12   1.261       .  A
O3            V9   1.897   1_556  S
O3           C13   1.265       .  A
O4            V9   1.902       .  S
O4           C14   1.267       .  A
O5           V10   1.891   1_554  S
O5           C14   1.260       .  A
O6           V10   1.889       .  S
O6           C13   1.262       .  A
O7           V10   1.904   1_554  S
O7           C12   1.268       .  A
O8           V10   1.901       .  S
O8           C11   1.267       .  A
V9           V10   2.082   1_554  T
C11        C1842   1.493       .  S
C12        C1826   1.475       .  S
C13        C1858   1.486       .  S
C14        C1813   1.471       .  S
C15        C1762   1.580       .  S
C15        C1778   1.585       .  S
C15        C1794   1.572       .  S
C15        C1861   1.578       .  S
O16          V24   1.895   1_554  S
O16          C26   1.262       .  A
O17          V24   1.901       .  S
O17          C27   1.263       .  A
O18          V24   1.898       .  S
O18          C28   1.266       .  A
O19          V24   1.901   1_554  S
O19          C29   1.264       .  A
O20          V25   1.885   1_554  S
O20          C29   1.262       .  A
O21          V25   1.890       .  S
O21          C28   1.259       .  A
O22          V25   1.893       .  S
O22          C27   1.267       .  A
O23          V25   1.895   1_554  S
O23          C26   1.263       .  A
V24          V25   2.088       .  T
C26        C1701   1.465       .  S
C27        C1714   1.492       .  S
C28        C1746   1.466       .  S
C29        C1733   1.470   1_554  S
C30        C1653   1.586       .  S
C30        C1666   1.599       .  S
C30        C1682   1.569       .  S
C30        C1717   1.568       .  S
O31          V39   1.886   1_455  S
O31          C41   1.258       .  A
O32          V39   1.893       .  S
O32          C42   1.259       .  A
O33          V39   1.911       .  S
O33          C43   1.269       .  A
O34          V39   1.918       .  S
O34          C44   1.270       .  A
O35          V40   1.879       .  S
O35          C44   1.258       .  A
O36          V40   1.885       .  S
O36          C43   1.259       .  A
O37          V40   1.894       .  S
O37          C42   1.265       .  A
O38          V40   1.900   1_455  S
O38          C41   1.266       .  A
V39          V40   2.090       .  T
C41        C1797   1.463       .  S
C42        C1685   1.465       .  S
C43        C1618   1.474       .  S
C44        C1637   1.475       .  S
O45          V53   1.895   1_455  S
O45          C55   1.260   1_455  A
O46          V53   1.895       .  S
O46          C56   1.261       .  A
O47          V53   1.904       .  S
O47          C57   1.266       .  A
O48          V53   1.906   1_455  S
O48          C58   1.270       .  A
O49          V54   1.893   1_455  S
O49          C58   1.260       .  A
O50          V54   1.889       .  S
O50          C57   1.260       .  A
O51          V54   1.892   1_455  S
O51          C56   1.264   1_455  A
O52          V54   1.889       .  S
O52          C55   1.268       .  A
V53          V54   2.083       .  T
C55        C1570   1.487   1_655  S
C56        C1586   1.465       .  S
C57        C1605   1.470       .  S
C58        C1554   1.493       .  S
C59        C1522   1.576       .  S
C59        C1538   1.589       .  S
C59        C1602   1.591       .  S
C59        C1698   1.569       .  S
C60        C1493   1.573       .  S
C60        C1506   1.581       .  S
C60        C1557   1.590       .  S
C60        C1810   1.571       .  S
O61          V69   1.886       .  S
O61          C71   1.260       .  A
O62          V69   1.886   1_556  S
O62          C72   1.261       .  A
O63          V69   1.888       .  S
O63          C73   1.262       .  A
O64          V69   1.882       .  S
O64          C74   1.265       .  A
O65          V70   1.912   1_556  S
O65          C74   1.265   1_556  A
O66          V70   1.908       .  S
O66          C73   1.266       .  A
O67          V70   1.904   1_556  S
O67          C72   1.266       .  A
O68          V70   1.901       .  S
O68          C71   1.265       .  A
V69          V70   2.083       .  T
C71        C1426   1.465       .  S
C72        C1445   1.471       .  S
C73        C1474   1.474       .  S
C74        C1461   1.493   1_554  S
C75        C1378   1.568       .  S
C75        C1394   1.583       .  S
C75        C1410   1.593       .  S
C75        C1442   1.583       .  S
O76          V84   1.908   1_545  S
O76          C86   1.266       .  A
O77          V84   1.904       .  S
O77          C87   1.264       .  A
O78          V84   1.904       .  S
O78          C88   1.266       .  A
O79          V84   1.897       .  S
O79          C89   1.264       .  A
O80          V85   1.910       .  S
O80          C89   1.267       .  A
O81          V85   1.910   1_545  S
O81          C88   1.266   1_545  A
O82          V85   1.885       .  S
O82          C87   1.261       .  A
O83          V85   1.877   1_545  S
O83          C86   1.260       .  A
V84          V85   2.082       .  T
C86        C1330   1.484       .  S
C87        C1413   1.468       .  S
C88        C1362   1.484       .  S
C89        C1346   1.498       .  S
O90          V98   1.898   1_554  S
O90         C100   1.262       .  A
O91          V98   1.888       .  S
O91         C101   1.261       .  A
O92          V98   1.906       .  S
O92         C102   1.268       .  A
O93          V98   1.909   1_554  S
O93         C103   1.266       .  A
O94          V99   1.897       .  S
O94         C103   1.263       .  A
O95          V99   1.899   1_556  S
O95         C102   1.261       .  A
O96          V99   1.894       .  S
O96         C101   1.263   1_554  A
O97          V99   1.884       .  S
O97         C100   1.265       .  A
V98          V99   2.087   1_556  T
C100       C1282   1.485       .  S
C101       C1298   1.463       .  S
C102       C1314   1.476       .  S
C103       C1266   1.476       .  S
C104       C1234   1.585       .  S
C104       C1250   1.590       .  S
C104       C1317   1.596       .  S
C104       C1333   1.579       .  S
O105        V113   1.901       .  S
O105        C115   1.264       .  A
O106        V113   1.892       .  S
O106        C116   1.262       .  A
O107        V113   1.901       .  S
O107        C117   1.264       .  A
O108        V113   1.903   1_545  S
O108        C118   1.264       .  A
O109        V114   1.905   1_545  S
O109        C118   1.265       .  A
O110        V114   1.897       .  S
O110        C117   1.263       .  A
O111        V114   1.894       .  S
O111        C116   1.262       .  A
O112        V114   1.890       .  S
O112        C115   1.262       .  A
V113        V114   2.089       .  T
C115       C1202   1.469       .  S
C116       C1186   1.465       .  S
C117       C1218   1.474       .  S
C118       C1170   1.480       .  S
C119       C1138   1.577       .  S
C119       C1154   1.573       .  S
C119       C1221   1.591       .  S
C119       C1429   1.586       .  S
C120       C1109   1.579       .  S
C120       C1122   1.581       .  S
C120       C1173   1.584       .  S
C120       C1269   1.580       .  S
O121        V129   1.903       .  S
O121        C131   1.265       .  A
O122        V129   1.906       .  S
O122        C132   1.265       .  A
O123        V129   1.875       .  S
O123        C133   1.258       .  A
O124        V129   1.880   1_545  S
O124        C134   1.259       .  A
O125        V130   1.914   1_545  S
O125        C134   1.269       .  A
O126        V130   1.914       .  S
O126        C133   1.268       .  A
O127        V130   1.895       .  S
O127        C132   1.265       .  A
O128        V130   1.894       .  S
O128        C131   1.262       .  A
V129        V130   2.083       .  T
C131       C1061   1.476       .  S
C132       C1077   1.493   1_565  S
C133       C1090   1.486       .  S
C134       C1042   1.492       .  S
C135        C997   1.582       .  S
C135       C1010   1.562       .  S
C135       C1026   1.578       .  S
C135       C1093   1.592       .  S
O136        V144   1.894       .  S
O136        C146   1.261       .  A
O137        V144   1.900   1_565  S
O137        C147   1.263       .  A
O138        V144   1.904       .  S
O138        C148   1.266       .  A
O139        V144   1.908       .  S
O139        C149   1.266       .  A
O140        V145   1.889       .  S
O140        C149   1.261       .  A
O141        V145   1.897       .  S
O141        C148   1.262       .  A
O142        V145   1.902   1_565  S
O142        C147   1.265       .  A
O143        V145   1.905       .  S
O143        C146   1.267       .  A
V144        V145   2.088       .  T
C146        C930   1.481       .  S
C147        C946   1.477       .  S
C148        C965   1.474       .  S
C149        C978   1.471       .  S
C150        C882   1.578       .  S
C150        C898   1.585       .  S
C150        C914   1.586       .  S
C150        C949   1.599       .  S
O151        V159   1.887       .  S
O151        C161   1.259       .  A
O152        V159   1.881   1_655  S
O152        C162   1.260       .  A
O153        V159   1.895   1_655  S
O153        C163   1.266       .  A
O154        V159   1.904       .  S
O154        C164   1.266       .  A
O155        V160   1.880       .  S
O155        C164   1.259       .  A
O156        V160   1.890       .  S
O156        C163   1.258   1_455  A
O157        V160   1.911   1_655  S
O157        C162   1.268       .  A
O158        V160   1.901       .  S
O158        C161   1.267       .  A
V159        V160   2.090       .  T
C161       C1029   1.470       .  S
C162        C917   1.475       .  S
C163        C869   1.462       .  S
C164        C853   1.466       .  S
O165        V173   1.896       .  S
O165        C175   1.262       .  A
O166        V173   1.892   1_655  S
O166        C176   1.262       .  A
O167        V173   1.890       .  S
O167        C177   1.263       .  A
O168        V173   1.890       .  S
O168        C178   1.263       .  A
O169        V174   1.908       .  S
O169        C178   1.266       .  A
O170        V174   1.904       .  S
O170        C177   1.264       .  A
O171        V174   1.905   1_655  S
O171        C176   1.265       .  A
O172        V174   1.899       .  S
O172        C175   1.265       .  A
V173        V174   2.083       .  T
C175        C786   1.474       .  S
C176        C834   1.475       .  S
C177        C805   1.472       .  S
C178        C818   1.494   1_455  S
C179        C757   1.578       .  S
C179        C770   1.595       .  S
C179        C837   1.580       .  S
C179        C933   1.584       .  S
C180        C722   1.583       .  S
C180        C738   1.586       .  S
C180        C789   1.580       .  S
C180       C1045   1.572       .  S
C181        C693   1.587   1_455  S
C181        C706   1.573       .  S
C181        C821   1.588       .  S
C181       C1589   1.573       .  S
C182        C661   1.568       .  S
C182        C677   1.578   1_565  S
C182        C981   1.590       .  S
C182       C1189   1.581   1_565  S
C183        C626   1.593       .  S
C183        C642   1.609   1_655  S
C183        C866   1.564       .  S
C183       C1573   1.564   1_655  S
C184        C594   1.609   1_545  S
C184        C610   1.576       .  S
C184       C1074   1.601       .  S
C184       C1205   1.569       .  S
C185        C562   1.585   1_455  S
C185        C578   1.585       .  S
C185        C850   1.571       .  S
C185       C1621   1.599       .  S
C186        C530   1.591       .  S
C186        C549   1.596   1_565  S
C186       C1058   1.579       .  S
C186       C1365   1.605       .  S
C187        C498   1.588       .  S
C187        C514   1.587   1_655  S
C187        C802   1.596       .  S
C187       C1634   1.579       .  S
C188        C466   1.573       .  S
C188        C482   1.592   1_565  S
C188        C962   1.581       .  S
C188       C1349   1.593       .  S
C189        C434   1.608   1_554  S
C189        C450   1.566       .  S
C189       C1301   1.573       .  S
C189       C1845   1.613       .  S
C190        C402   1.604   1_554  S
C190        C421   1.589       .  S
C190       C1458   1.570       .  S
C190       C1829   1.573       .  S
C191        C370   1.589   1_554  S
C191        C389   1.588       .  S
C191       C1285   1.567       .  S
C191       C1749   1.563   1_554  S
C192        C338   1.576       .  S
C192        C354   1.587   1_556  S
C192       C1477   1.597       .  S
C192       C1730   1.577       .  S
C193        C386   1.481       .  S
C193        C194   1.402       .  A
C193        C198   1.406       .  A
C194        C195   1.399       .  A
C194        H199   1.084       .  S
C195        C690   1.474       .  S
C195        C196   1.398       .  A
C196        C197   1.402       .  A
C196        H200   1.081       .  S
C197        C674   1.493       .  S
C197        C198   1.410       .  A
C198        H201   1.083       .  S
C202        C418   1.501       .  S
C202        C203   1.407       .  A
C202        C207   1.407       .  A
C203        C204   1.403       .  A
C203        H208   1.083       .  S
C204        C645   1.483       .  S
C204        C205   1.404       .  A
C205        C206   1.408       .  A
C205        H209   1.080       .  S
C206        C597   1.500       .  S
C206        C207   1.412       .  A
C207        H210   1.083       .  S
C211        C546   1.510       .  S
C211        C212   1.405       .  A
C211        C216   1.415       .  A
C212        C213   1.412       .  A
C212        H217   1.076       .  S
C213        C437   1.508       .  S
C213        C214   1.404       .  A
C214        C215   1.411       .  A
C214        H218   1.076       .  S
C215        C517   1.510       .  S
C215        C216   1.409       .  A
C216        H219   1.077       .  S
C220        C629   1.499       .  S
C220        C221   1.405       .  A
C220        C225   1.409       .  A
C221        C222   1.403       .  A
C221        H226   1.083       .  S
C222        C658   1.487       .  S
C222        C223   1.402       .  A
C223        C224   1.401       .  A
C223        H227   1.073       .  S
C224        C357   1.495       .  S
C224        C225   1.410       .  A
C225        H228   1.083       .  S
C229        C405   1.484       .  S
C229        C230   1.402       .  A
C229        C234   1.400       .  A
C230        C231   1.408       .  A
C230        H235   1.081       .  S
C231        C533   1.497       .  S
C231        C232   1.409       .  A
C232        C233   1.410       .  A
C232        H236   1.084       .  S
C233        C581   1.494       .  S
C233        C234   1.406       .  A
C234        H237   1.081       .  S
C238        C373   1.488       .  S
C238        C239   1.406       .  A
C238        C243   1.405       .  A
C239        C240   1.405       .  A
C239        H244   1.082       .  S
C240        C501   1.497       .  S
C240        C241   1.406       .  A
C241        C242   1.407       .  A
C241        H245   1.082       .  S
C242        C485   1.494       .  S
C242        C243   1.403       .  A
C243        H246   1.082       .  S
C247        C469   1.470       .  S
C247        C248   1.398       .  A
C247        C252   1.389       .  A
C248        C249   1.412       .  A
C248        H253   1.084       .  S
C249        C565   1.495       .  S
C249        C250   1.408       .  A
C250        C251   1.406       .  A
C250        H254   1.081       .  S
C251        C341   1.477       .  S
C251        C252   1.396       .  A
C252        H255   1.083       .  S
C256        C613   1.478       .  S
C256        C257   1.400       .  A
C256        C261   1.403       .  A
C257        C258   1.398       .  A
C257        H262   1.083       .  S
C258        C453   1.474       .  S
C258        C259   1.399       .  A
C259        C260   1.406       .  A
C259        H263   1.084       .  S
C260        C709   1.487       .  S
C260        C261   1.402       .  A
C261        H264   1.084       .  S
C265       C1237   1.503       .  S
C265        C266   1.409       .  A
C265        C270   1.409       .  A
C266        C267   1.410       .  A
C266        H271   1.077       .  S
C267       C1765   1.499       .  S
C267        C268   1.409       .  A
C268        C269   1.400       .  A
C268        H272   1.084       .  S
C269        C741   1.482       .  S
C269        C270   1.397       .  A
C270        H273   1.083       .  S
C274        C754   1.490       .  S
C274        C275   1.401       .  A
C274        C279   1.407       .  A
C275        C276   1.404       .  A
C275        H280   1.082       .  S
C276       C1525   1.492       .  S
C276        C277   1.410       .  A
C277        C278   1.407       .  A
C277        H281   1.081       .  S
C278       C1125   1.504       .  S
C278        C279   1.408       .  A
C279        H282   1.083       .  S
C283        C994   1.473       .  S
C283        C284   1.399       .  A
C283        C288   1.401       .  A
C284        C285   1.402       .  A
C284        H289   1.082       .  S
C285       C1509   1.492       .  S
C285        C286   1.410       .  A
C286        C287   1.409       .  A
C286        H290   1.082       .  S
C287       C1141   1.499       .  S
C287        C288   1.405       .  A
C288        H291   1.084       .  S
C292        C725   1.491       .  S
C292        C293   1.408       .  A
C292        C297   1.402       .  A
C293        C294   1.409       .  A
C293        H298   1.078       .  S
C294       C1106   1.501       .  S
C294        C295   1.411       .  A
C295        C296   1.400       .  A
C295        H299   1.083       .  S
C296       C1490   1.477       .  S
C296        C297   1.397       .  A
C297        H300   1.082       .  S
C301       C1381   1.487       .  S
C301        C302   1.405       .  A
C301        C306   1.403       .  A
C302        C303   1.405       .  A
C302        H307   1.081       .  S
C303       C1013   1.499       .  S
C303        C304   1.411       .  A
C304        C305   1.404       .  A
C304        H308   1.083       .  S
C305       C1781   1.481       .  S
C305        C306   1.402       .  A
C306        H309   1.084       .  S
C310       C1650   1.500       .  S
C310        C311   1.406       .  A
C310        C315   1.409       .  A
C311        C312   1.401       .  A
C311        H316   1.084       .  S
C312       C1253   1.481       .  S
C312        C313   1.404       .  A
C313        C314   1.408       .  A
C313        H317   1.081       .  S
C314        C773   1.503       .  S
C314        C315   1.411       .  A
C315        H318   1.081       .  S
C319        C885   1.498       .  S
C319        C320   1.407       .  A
C319        C324   1.405       .  A
C320        C321   1.410       .  A
C320        H325   1.078       .  S
C321       C1541   1.501       .  S
C321        C322   1.410       .  A
C322        C323   1.404       .  A
C322        H326   1.084       .  S
C323       C1157   1.493       .  S
C323        C324   1.406       .  A
C324        H327   1.082       .  S
C328        C901   1.498       .  S
C328        C329   1.410       .  A
C328        C333   1.409       .  A
C329        C330   1.404       .  A
C329        H334   1.080       .  S
C330       C1669   1.484       .  S
C330        C331   1.398       .  A
C331        C332   1.403       .  A
C331        H335   1.081       .  S
C332       C1397   1.490       .  S
C332        C333   1.407       .  A
C333        H336   1.084       .  S
C337        C338   1.418       .  A
C337        C342   1.394       .  A
C337        H344   1.073       .  S
C338        C339   1.442       .  A
C339        C346   1.515       .  S
C339        C340   1.405       .  A
C340        C341   1.396       .  A
C340        H345   1.085       .  S
C341        C342   1.407       .  A
C342        C343   1.514       .  S
C343        H347   1.111       .  S
C343        H348   1.110       .  S
C343        H349   1.106       .  S
C346        H350   1.111       .  S
C346        H351   1.105   1_556  S
C346        H352   1.106   1_556  S
C353        C354   1.426       .  A
C353        C358   1.404       .  A
C353        H360   1.084       .  S
C354        C355   1.446       .  A
C355        C362   1.513       .  S
C355        C356   1.407       .  A
C356        C357   1.398       .  A
C356        H361   1.084       .  S
C357        C358   1.410       .  A
C358        C359   1.510       .  S
C359        H363   1.111       .  S
C359        H364   1.110       .  S
C359        H365   1.106       .  S
C362        H366   1.106       .  S
C362        H367   1.105       .  S
C362        H368   1.111       .  S
C369        C370   1.422       .  A
C369        C374   1.400       .  A
C369        H376   1.078       .  S
C370        C371   1.447       .  A
C371        C378   1.516       .  S
C371        C372   1.410       .  A
C372        C373   1.397       .  A
C372        H377   1.085       .  S
C373        C374   1.406       .  A
C374        C375   1.510       .  S
C375        H379   1.111       .  S
C375        H380   1.107       .  S
C375        H381   1.110       .  S
C378        H382   1.103       .  S
C378        H383   1.106       .  S
C378        H384   1.111       .  S
C385        C386   1.392       .  A
C385        C390   1.408       .  A
C385        H392   1.085       .  S
C386        C387   1.403       .  A
C387        C394   1.508       .  S
C387        C388   1.404       .  A
C388        C389   1.425       .  A
C388        H393   1.078       .  S
C389        C390   1.442       .  A
C390        C391   1.506       .  S
C391        H395   1.111       .  S
C391        H396   1.104       .  S
C391        H397   1.099       .  S
C394        H398   1.110       .  S
C394        H399   1.111       .  S
C394        H400   1.111       .  S
C401        C402   1.431       .  A
C401        C406   1.406       .  A
C401        H408   1.077   1_556  S
C402        C403   1.444       .  A
C403        C410   1.509       .  S
C403        C404   1.410       .  A
C404        C405   1.394       .  A
C404        H409   1.085       .  S
C405        C406   1.399       .  A
C406        C407   1.507       .  S
C407        H411   1.111       .  S
C407        H412   1.111       .  S
C407        H413   1.110       .  S
C410        H414   1.104       .  S
C410        H415   1.098       .  S
C410        H416   1.111       .  S
C417        C418   1.402       .  A
C417        C422   1.412       .  A
C417        H424   1.085       .  S
C418        C419   1.410       .  A
C419        C426   1.509       .  S
C419        C420   1.402       .  A
C420        C421   1.425       .  A
C420        H425   1.084       .  S
C421        C422   1.446       .  A
C422        C423   1.515       .  S
C423        H427   1.112       .  S
C423        H428   1.110       .  S
C423        H429   1.092       .  S
C426        H430   1.107       .  S
C426        H431   1.110       .  S
C426        H432   1.111       .  S
C433        C434   1.415       .  A
C433        C438   1.408       .  A
C433        H440   1.056       .  S
C434        C435   1.447       .  A
C435        C442   1.516       .  S
C435        C436   1.405       .  A
C436        C437   1.400       .  A
C436        H441   1.084       .  S
C437        C438   1.416       .  A
C438        C439   1.512       .  S
C439        H443   1.111       .  S
C439        H444   1.110       .  S
C439        H445   1.107       .  S
C442        H446   1.103       .  S
C442        H447   1.107       .  S
C442        H448   1.113       .  S
C449        C450   1.421       .  A
C449        C454   1.399       .  A
C449        H456   1.079       .  S
C450        C451   1.441       .  A
C451        C458   1.509       .  S
C451        C452   1.404       .  A
C452        C453   1.392       .  A
C452        H457   1.085       .  S
C453        C454   1.403       .  A
C454        C455   1.508       .  S
C455        H459   1.111       .  S
C455        H460   1.110       .  S
C455        H461   1.108       .  S
C458        H462   1.106       .  S
C458        H463   1.107       .  S
C458        H464   1.111       .  S
C465        C466   1.423       .  A
C465        C470   1.397       .  A
C465        H472   1.075       .  S
C466        C467   1.439       .  A
C467        C474   1.510       .  S
C467        C468   1.408       .  A
C468        C469   1.396       .  A
C468        H473   1.085       .  S
C469        C470   1.397       .  A
C470        C471   1.508       .  S
C471        H475   1.111       .  S
C471        H476   1.110       .  S
C471        H477   1.110       .  S
C474        H478   1.104       .  S
C474        H479   1.108       .  S
C474        H480   1.111       .  S
C481        C482   1.422       .  A
C481        C486   1.409       .  A
C481        H488   1.078       .  S
C482        C483   1.440       .  A
C483        C490   1.505       .  S
C483        C484   1.399       .  A
C484        C485   1.395       .  A
C484        H489   1.085       .  S
C485        C486   1.414       .  A
C486        C487   1.510       .  S
C487        H491   1.111       .  S
C487        H492   1.110       .  S
C487        H493   1.106       .  S
C490        H494   1.083   1_545  S
C490        H495   1.111       .  S
C490        H496   1.111       .  S
C497        C498   1.421       .  A
C497        C502   1.399       .  A
C497        H504   1.075       .  S
C498        C499   1.440       .  A
C499        C506   1.513       .  S
C499        C500   1.412       .  A
C500        C501   1.403       .  A
C500        H505   1.084       .  S
C501        C502   1.410       .  A
C502        C503   1.511       .  S
C503        H507   1.111       .  S
C503        H508   1.107       .  S
C503        H509   1.110       .  S
C506        H510   1.101       .  S
C506        H511   1.107   1_655  S
C506        H512   1.111       .  S
C513        C514   1.423       .  A
C513        C518   1.410       .  A
C513        H520   1.083       .  S
C514        C515   1.443       .  A
C515        C522   1.516       .  S
C515        C516   1.406       .  A
C516        C517   1.402       .  A
C516        H521   1.084       .  S
C517        C518   1.417       .  A
C518        C519   1.508       .  S
C519        H523   1.111       .  S
C519        H524   1.110       .  S
C519        H525   1.107       .  S
C522        H526   1.100       .  S
C522        H527   1.109       .  S
C522        H528   1.112       .  S
C529        C530   1.422       .  A
C529        C534   1.402       .  A
C529        H536   1.073       .  S
C530        C531   1.442       .  A
C531        C538   1.514       .  S
C531        C532   1.413       .  A
C532        C533   1.402       .  A
C532        H537   1.084       .  S
C533        C534   1.409       .  A
C534        C535   1.512       .  S
C535        H539   1.111       .  S
C535        H540   1.111       .  S
C535        H541   1.106       .  S
C538        H542   1.111       .  S
C538        H543   1.103   1_565  S
C538        H544   1.107   1_565  S
C545        C546   1.397       .  A
C545        C550   1.408       .  A
C545        H552   1.084       .  S
C546        C547   1.417       .  A
C547        C554   1.509       .  S
C547        C548   1.411       .  A
C548        C549   1.424       .  A
C548        H553   1.084       .  S
C549        C550   1.451       .  A
C550        C551   1.516       .  S
C551        H555   1.112       .  S
C551        H556   1.104       .  S
C551        H557   1.106       .  S
C554        H558   1.110       .  S
C554        H559   1.107       .  S
C554        H560   1.111       .  S
C561        C562   1.424       .  A
C561        C566   1.404       .  A
C561        H568   1.084       .  S
C562        C563   1.447       .  A
C563        C570   1.517       .  S
C563        C564   1.405       .  A
C564        C565   1.397       .  A
C564        H569   1.085       .  S
C565        C566   1.412       .  A
C566        C567   1.510       .  S
C567        H571   1.111       .  S
C567        H572   1.106       .  S
C567        H573   1.110       .  S
C570        H574   1.108       .  S
C570        H575   1.102       .  S
C570        H576   1.112       .  S
C577        C578   1.421       .  A
C577        C582   1.404       .  A
C577        H584   1.075       .  S
C578        C579   1.442       .  A
C579        C586   1.514       .  S
C579        C580   1.409       .  A
C580        C581   1.399       .  A
C580        H585   1.084       .  S
C581        C582   1.411       .  A
C582        C583   1.512       .  S
C583        H587   1.111       .  S
C583        H588   1.106       .  S
C583        H589   1.110       .  S
C586        H590   1.107   1_455  S
C586        H591   1.101       .  S
C586        H592   1.111       .  S
C593        C594   1.423       .  A
C593        C598   1.409       .  A
C593        H600   1.083       .  S
C594        C595   1.442       .  A
C595        C602   1.517       .  S
C595        C596   1.402       .  A
C596        C597   1.400       .  A
C596        H601   1.085       .  S
C597        C598   1.413       .  A
C598        C599   1.509       .  S
C599        H603   1.111       .  S
C599        H604   1.106       .  S
C599        H605   1.110       .  S
C602        H606   1.108       .  S
C602        H607   1.105       .  S
C602        H608   1.112       .  S
C609        C610   1.426       .  A
C609        C614   1.399       .  A
C609        H616   1.081       .  S
C610        C611   1.445       .  A
C611        C618   1.512       .  S
C611        C612   1.402       .  A
C612        C613   1.393       .  A
C612        H617   1.084       .  S
C613        C614   1.401       .  A
C614        C615   1.508       .  S
C615        H619   1.111       .  S
C615        H620   1.106       .  S
C615        H621   1.110       .  S
C618        H622   1.097       .  S
C618        H623   1.103       .  S
C618        H624   1.111       .  S
C625        C626   1.425       .  A
C625        C630   1.401       .  A
C625        H632   1.084       .  S
C626        C627   1.449       .  A
C627        C634   1.516       .  S
C627        C628   1.410       .  A
C628        C629   1.400       .  A
C628        H633   1.085       .  S
C629        C630   1.411       .  A
C630        C631   1.510       .  S
C631        H635   1.111       .  S
C631        H636   1.110       .  S
C631        H637   1.107       .  S
C634        H638   1.093       .  S
C634        H639   1.110       .  S
C634        H640   1.112       .  S
C641        C642   1.426       .  A
C641        C646   1.404       .  A
C641        H648   1.073       .  S
C642        C643   1.450       .  A
C643        C650   1.507       .  S
C643        C644   1.412       .  A
C644        C645   1.390       .  A
C644        H649   1.084       .  S
C645        C646   1.400       .  A
C646        C647   1.509       .  S
C647        H651   1.111       .  S
C647        H652   1.110       .  S
C647        H653   1.111       .  S
C650        H654   1.106       .  S
C650        H655   1.098       .  S
C650        H656   1.111       .  S
C657        C658   1.400       .  A
C657        C662   1.402       .  A
C657        H664   1.085       .  S
C658        C659   1.410       .  A
C659        C666   1.511       .  S
C659        C660   1.400       .  A
C660        C661   1.422       .  A
C660        H665   1.073       .  S
C661        C662   1.436       .  A
C662        C663   1.511       .  S
C663        H667   1.111       .  S
C663        H668   1.103   1_565  S
C663        H669   1.110   1_565  S
C666        H670   1.110       .  S
C666        H671   1.106       .  S
C666        H672   1.111       .  S
C673        C674   1.399       .  A
C673        C678   1.407       .  A
C673        H680   1.084       .  S
C674        C675   1.414       .  A
C675        C682   1.512       .  S
C675        C676   1.401       .  A
C676        C677   1.418       .  A
C676        H681   1.074       .  S
C677        C678   1.441       .  A
C678        C679   1.514       .  S
C679        H683   1.111       .  S
C679        H684   1.107       .  S
C679        H685   1.107   1_545  S
C682        H686   1.110       .  S
C682        H687   1.106       .  S
C682        H688   1.111       .  S
C689        C690   1.395       .  A
C689        C694   1.409       .  A
C689        H696   1.084       .  S
C690        C691   1.398       .  A
C691        C698   1.509       .  S
C691        C692   1.398       .  A
C692        C693   1.427       .  A
C692        H697   1.076       .  S
C693        C694   1.440       .  A
C694        C695   1.511       .  S
C695        H699   1.111       .  S
C695        H700   1.103       .  S
C695        H701   1.107       .  S
C698        H702   1.110       .  S
C698        H703   1.110       .  S
C698        H704   1.111       .  S
C705        C706   1.417       .  A
C705        C710   1.402       .  A
C705        H712   1.077       .  S
C706        C707   1.441       .  A
C707        C714   1.516       .  S
C707        C708   1.399       .  A
C708        C709   1.396       .  A
C708        H713   1.084       .  S
C709        C710   1.414       .  A
C710        C711   1.509       .  S
C711        H715   1.111       .  S
C711        H716   1.106       .  S
C711        H717   1.110       .  S
C714        H718   1.107       .  S
C714        H719   1.103   1_455  S
C714        H720   1.111       .  S
C721        C722   1.417       .  A
C721        C726   1.400       .  A
C721        H728   1.079       .  S
C722        C723   1.447       .  A
C723        C730   1.517       .  S
C723        C724   1.408       .  A
C724        C725   1.397       .  A
C724        H729   1.085       .  S
C725        C726   1.410       .  A
C726        C727   1.511       .  S
C727        H731   1.111       .  S
C727        H732   1.106       .  S
C727        H733   1.110       .  S
C730        H734   1.095       .  S
C730        H735   1.110       .  S
C730        H736   1.112       .  S
C737        C738   1.425       .  A
C737        C742   1.403       .  A
C737        H744   1.076       .  S
C738        C739   1.443       .  A
C739        C746   1.510       .  S
C739        C740   1.409       .  A
C740        C741   1.393       .  A
C740        H745   1.085       .  S
C741        C742   1.402       .  A
C742        C743   1.508       .  S
C743        H747   1.111       .  S
C743        H748   1.109       .  S
C743        H749   1.110       .  S
C746        H750   1.107       .  S
C746        H751   1.103       .  S
C746        H752   1.111       .  S
C753        C754   1.396       .  A
C753        C758   1.403       .  A
C753        H760   1.085       .  S
C754        C755   1.409       .  A
C755        C762   1.507       .  S
C755        C756   1.404       .  A
C756        C757   1.421       .  A
C756        H761   1.082       .  S
C757        C758   1.444       .  A
C758        C759   1.514       .  S
C759        H763   1.111       .  S
C759        H764   1.107       .  S
C759        H765   1.100       .  S
C762        H766   1.110       .  S
C762        H767   1.106       .  S
C762        H768   1.111       .  S
C769        C770   1.421       .  A
C769        C774   1.407       .  A
C769        H776   1.083       .  S
C770        C771   1.439       .  A
C771        C778   1.514       .  S
C771        C772   1.406       .  A
C772        C773   1.402       .  A
C772        H777   1.084       .  S
C773        C774   1.416       .  A
C774        C775   1.509       .  S
C775        H779   1.111       .  S
C775        H780   1.110       .  S
C775        H781   1.106       .  S
C778        H782   1.105       .  S
C778        H783   1.108       .  S
C778        H784   1.112       .  S
C785        C786   1.400       .  A
C785        C790   1.409       .  A
C785        H792   1.085       .  S
C786        C787   1.404       .  A
C787        C794   1.510       .  S
C787        C788   1.397       .  A
C788        C789   1.420       .  A
C788        H793   1.075       .  S
C789        C790   1.436       .  A
C790        C791   1.510       .  S
C791        H795   1.110       .  S
C791        H796   1.111       .  S
C791        H797   1.099       .  S
C794        H798   1.111       .  S
C794        H799   1.109       .  S
C794        H800   1.111       .  S
C801        C802   1.427   1_455  A
C801        C806   1.407       .  A
C801        H808   1.074       .  S
C802        C803   1.447       .  A
C803        C810   1.510       .  S
C803        C804   1.396       .  A
C804        C805   1.388   1_655  A
C804        H809   1.086       .  S
C805        C806   1.403       .  A
C806        C807   1.508       .  S
C807        H811   1.111       .  S
C807        H812   1.111       .  S
C807        H813   1.110       .  S
C810        H814   1.111       .  S
C810        H815   1.088       .  S
C810        H816   1.111       .  S
C817        C818   1.404   1_455  A
C817        C822   1.412       .  A
C817        H824   1.084       .  S
C818        C819   1.412       .  A
C819        C826   1.513       .  S
C819        C820   1.396       .  A
C820        C821   1.424   1_655  A
C820        H825   1.075       .  S
C821        C822   1.436       .  A
C822        C823   1.508       .  S
C823        H827   1.110   1_455  S
C823        H828   1.111       .  S
C823        H829   1.095       .  S
C826        H830   1.110   1_655  S
C826        H831   1.111       .  S
C826        H832   1.111       .  S
C833        C834   1.393       .  A
C833        C838   1.408       .  A
C833        H840   1.085       .  S
C834        C835   1.402       .  A
C835        C842   1.508       .  S
C835        C836   1.401       .  A
C836        C837   1.426       .  A
C836        H841   1.084       .  S
C837        C838   1.447       .  A
C838        C839   1.512       .  S
C839        H843   1.111       .  S
C839        H844   1.106       .  S
C839        H845   1.105       .  S
C842        H846   1.111       .  S
C842        H847   1.110       .  S
C842        H848   1.111       .  S
C849        C850   1.427   1_655  A
C849        C854   1.394       .  A
C849        H856   1.084       .  S
C850        C851   1.446       .  A
C851        C858   1.517       .  S
C851        C852   1.407       .  A
C852        C853   1.395       .  A
C852        H857   1.085       .  S
C853        C854   1.398   1_455  A
C854        C855   1.509       .  S
C855        H859   1.111       .  S
C855        H860   1.110       .  S
C855        H861   1.110       .  S
C858        H862   1.103       .  S
C858        H863   1.101       .  S
C858        H864   1.111       .  S
C865        C866   1.421   1_455  A
C865        C870   1.405       .  A
C865        H872   1.078       .  S
C866        C867   1.443       .  A
C867        C874   1.510       .  S
C867        C868   1.397       .  A
C868        C869   1.387       .  A
C868        H873   1.085       .  S
C869        C870   1.405   1_655  A
C870        C871   1.506       .  S
C871        H875   1.111       .  S
C871        H876   1.110       .  S
C871        H877   1.110       .  S
C874        H878   1.099       .  S
C874        H879   1.105       .  S
C874        H880   1.111       .  S
C881        C882   1.413       .  A
C881        C886   1.394       .  A
C881        H888   1.073       .  S
C882        C883   1.442       .  A
C883        C890   1.514       .  S
C883        C884   1.414       .  A
C884        C885   1.402       .  A
C884        H889   1.084       .  S
C885        C886   1.411       .  A
C886        C887   1.504       .  S
C887        H891   1.111       .  S
C887        H892   1.102       .  S
C887        H893   1.110       .  S
C890        H894   1.107       .  S
C890        H895   1.111       .  S
C890        H896   1.107       .  S
C897        C898   1.423       .  A
C897        C902   1.406       .  A
C897        H904   1.075       .  S
C898        C899   1.439       .  A
C899        C906   1.511       .  S
C899        C900   1.406       .  A
C900        C901   1.401       .  A
C900        H905   1.085       .  S
C901        C902   1.412       .  A
C902        C903   1.511       .  S
C903        H907   1.111       .  S
C903        H908   1.106       .  S
C903        H909   1.110       .  S
C906        H910   1.100       .  S
C906        H911   1.111       .  S
C906        H912   1.110       .  S
C913        C914   1.427       .  A
C913        C918   1.399       .  A
C913        H920   1.084       .  S
C914        C915   1.449       .  A
C915        C922   1.518       .  S
C915        C916   1.407       .  A
C916        C917   1.395       .  A
C916        H921   1.085       .  S
C917        C918   1.400       .  A
C918        C919   1.508       .  S
C919        H923   1.111       .  S
C919        H924   1.110       .  S
C919        H925   1.110       .  S
C922        H926   1.104       .  S
C922        H927   1.101       .  S
C922        H928   1.111       .  S
C929        C930   1.395       .  A
C929        C934   1.403       .  A
C929        H936   1.085       .  S
C930        C931   1.409       .  A
C931        C938   1.505       .  S
C931        C932   1.400       .  A
C932        C933   1.418       .  A
C932        H937   1.068       .  S
C933        C934   1.443       .  A
C934        C935   1.509       .  S
C935        H939   1.111       .  S
C935        H940   1.110       .  S
C935        H941   1.099       .  S
C938        H942   1.095       .  S
C938        H943   1.110       .  S
C938        H944   1.111       .  S
C945        C946   1.390       .  A
C945        C950   1.403       .  A
C945        H952   1.086       .  S
C946        C947   1.405       .  A
C947        C954   1.509       .  S
C947        C948   1.406       .  A
C948        C949   1.425       .  A
C948        H953   1.075       .  S
C949        C950   1.448       .  A
C950        C951   1.510       .  S
C951        H955   1.111       .  S
C951        H956   1.090       .  S
C951        H957   1.111       .  S
C954        H958   1.110       .  S
C954        H959   1.111       .  S
C954        H960   1.111       .  S
C961        C962   1.421   1_545  A
C961        C966   1.392       .  A
C961        H968   1.081       .  S
C962        C963   1.447       .  A
C963        C970   1.515       .  S
C963        C964   1.411       .  A
C964        C965   1.395   1_565  A
C964        H969   1.086       .  S
C965        C966   1.399       .  A
C966        C967   1.498       .  S
C967        H971   1.111       .  S
C967        H972   1.109       .  S
C967        H973   1.111       .  S
C970        H974   1.110       .  S
C970        H975   1.095       .  S
C970        H976   1.111       .  S
C977        C978   1.389   1_565  A
C977        C982   1.406       .  A
C977        H984   1.086       .  S
C978        C979   1.400       .  A
C979        C986   1.507       .  S
C979        C980   1.403       .  A
C980        C981   1.426   1_545  A
C980        H985   1.082       .  S
C981        C982   1.450       .  A
C982        C983   1.515       .  S
C983        H987   1.111       .  S
C983        H988   1.101       .  S
C983        H989   1.105       .  S
C986        H990   1.111       .  S
C986        H991   1.110       .  S
C986        H992   1.111       .  S
C993        C994   1.391       .  A
C993        C998   1.407       .  A
C993       H1000   1.086       .  S
C994        C995   1.397       .  A
C995       C1002   1.507       .  S
C995        C996   1.399       .  A
C996        C997   1.425       .  A
C996       H1001   1.079       .  S
C997        C998   1.452       .  A
C998        C999   1.519       .  S
C999       H1003   1.112       .  S
C999       H1004   1.110       .  S
C999       H1005   1.094       .  S
C1002      H1006   1.111       .  S
C1002      H1007   1.110       .  S
C1002      H1008   1.111       .  S
C1009      C1010   1.412       .  A
C1009      C1014   1.400       .  A
C1009      H1016   1.075       .  S
C1010      C1011   1.439       .  A
C1011      C1018   1.513       .  S
C1011      C1012   1.406       .  A
C1012      C1013   1.400       .  A
C1012      H1017   1.083       .  S
C1013      C1014   1.416       .  A
C1014      C1015   1.505       .  S
C1015      H1019   1.111       .  S
C1015      H1020   1.104       .  S
C1015      H1021   1.109       .  S
C1018      H1022   1.104       .  S
C1018      H1023   1.107       .  S
C1018      H1024   1.111       .  S
C1025      C1026   1.419       .  A
C1025      C1030   1.405       .  A
C1025      H1032   1.079       .  S
C1026      C1027   1.443       .  A
C1027      C1034   1.513       .  S
C1027      C1028   1.398       .  A
C1028      C1029   1.389       .  A
C1028      H1033   1.085       .  S
C1029      C1030   1.409       .  A
C1030      C1031   1.508       .  S
C1031      H1035   1.111       .  S
C1031      H1036   1.110       .  S
C1031      H1037   1.109       .  S
C1034      H1038   1.111       .  S
C1034      H1039   1.105       .  S
C1034      H1040   1.107       .  S
C1041      C1042   1.402       .  A
C1041      C1046   1.410       .  A
C1041      H1048   1.084       .  S
C1042      C1043   1.415       .  A
C1043      C1050   1.513       .  S
C1043      C1044   1.396       .  A
C1044      C1045   1.419       .  A
C1044      H1049   1.076       .  S
C1045      C1046   1.435       .  A
C1046      C1047   1.507       .  S
C1047      H1051   1.110       .  S
C1047      H1052   1.093       .  S
C1047      H1053   1.111       .  S
C1050      H1054   1.110       .  S
C1050      H1055   1.110       .  S
C1050      H1056   1.111       .  S
C1057      C1058   1.424   1_545  A
C1057      C1062   1.397       .  A
C1057      H1064   1.083       .  S
C1058      C1059   1.449       .  A
C1059      C1066   1.516       .  S
C1059      C1060   1.412       .  A
C1060      C1061   1.395       .  A
C1060      H1065   1.085       .  S
C1061      C1062   1.402   1_565  A
C1062      C1063   1.510       .  S
C1063      H1067   1.111       .  S
C1063      H1068   1.111       .  S
C1063      H1069   1.109       .  S
C1066      H1070   1.100       .  S
C1066      H1071   1.104       .  S
C1066      H1072   1.111       .  S
C1073      C1074   1.423   1_565  A
C1073      C1078   1.408       .  A
C1073      H1080   1.061       .  S
C1074      C1075   1.454       .  A
C1075      C1082   1.518       .  S
C1075      C1076   1.403       .  A
C1076      C1077   1.395       .  A
C1076      H1081   1.085       .  S
C1077      C1078   1.409   1_545  A
C1078      C1079   1.509       .  S
C1079      H1083   1.111       .  S
C1079      H1084   1.110   1_565  S
C1079      H1085   1.109       .  S
C1082      H1086   1.099       .  S
C1082      H1087   1.109       .  S
C1082      H1088   1.112       .  S
C1089      C1090   1.401       .  A
C1089      C1094   1.410       .  A
C1089      H1096   1.084       .  S
C1090      C1091   1.412       .  A
C1091      C1098   1.513       .  S
C1091      C1092   1.393       .  A
C1092      C1093   1.423       .  A
C1092      H1097   1.078       .  S
C1093      C1094   1.435       .  A
C1094      C1095   1.501       .  S
C1095      H1099   1.111       .  S
C1095      H1100   1.086       .  S
C1095      H1101   1.111       .  S
C1098      H1102   1.109       .  S
C1098      H1103   1.109       .  S
C1098      H1104   1.111       .  S
C1105      C1106   1.404       .  A
C1105      C1110   1.404       .  A
C1105      H1112   1.084       .  S
C1106      C1107   1.416       .  A
C1107      C1114   1.509       .  S
C1107      C1108   1.405       .  A
C1108      C1109   1.419       .  A
C1108      H1113   1.082       .  S
C1109      C1110   1.437       .  A
C1110      C1111   1.513       .  S
C1111      H1115   1.112       .  S
C1111      H1116   1.109       .  S
C1111      H1117   1.103       .  S
C1114      H1118   1.107       .  S
C1114      H1119   1.110       .  S
C1114      H1120   1.111       .  S
C1121      C1122   1.422       .  A
C1121      C1126   1.405       .  A
C1121      H1128   1.082       .  S
C1122      C1123   1.440       .  A
C1123      C1130   1.513       .  S
C1123      C1124   1.407       .  A
C1124      C1125   1.403       .  A
C1124      H1129   1.083       .  S
C1125      C1126   1.413       .  A
C1126      C1127   1.508       .  S
C1127      H1131   1.111       .  S
C1127      H1132   1.110       .  S
C1127      H1133   1.107       .  S
C1130      H1134   1.106       .  S
C1130      H1135   1.107       .  S
C1130      H1136   1.112       .  S
C1137      C1138   1.421       .  A
C1137      C1142   1.400       .  A
C1137      H1144   1.076       .  S
C1138      C1139   1.436       .  A
C1139      C1146   1.514       .  S
C1139      C1140   1.410       .  A
C1140      C1141   1.405       .  A
C1140      H1145   1.084       .  S
C1141      C1142   1.412       .  A
C1142      C1143   1.510       .  S
C1143      H1147   1.111       .  S
C1143      H1148   1.107       .  S
C1143      H1149   1.110       .  S
C1146      H1150   1.108       .  S
C1146      H1151   1.107       .  S
C1146      H1152   1.111       .  S
C1153      C1154   1.417       .  A
C1153      C1158   1.393       .  A
C1153      H1160   1.075       .  S
C1154      C1155   1.438       .  A
C1155      C1162   1.512       .  S
C1155      C1156   1.413       .  A
C1156      C1157   1.402       .  A
C1156      H1161   1.084       .  S
C1157      C1158   1.408       .  A
C1158      C1159   1.504       .  S
C1159      H1163   1.111       .  S
C1159      H1164   1.104       .  S
C1159      H1165   1.109       .  S
C1162      H1166   1.108       .  S
C1162      H1167   1.107       .  S
C1162      H1168   1.111       .  S
C1169      C1170   1.393       .  A
C1169      C1174   1.412       .  A
C1169      H1176   1.085       .  S
C1170      C1171   1.403       .  A
C1171      C1178   1.505       .  S
C1171      C1172   1.401       .  A
C1172      C1173   1.422       .  A
C1172      H1177   1.080       .  S
C1173      C1174   1.447       .  A
C1174      C1175   1.511       .  S
C1175      H1179   1.111       .  S
C1175      H1180   1.106       .  S
C1175      H1181   1.104       .  S
C1178      H1182   1.110       .  S
C1178      H1183   1.108       .  S
C1178      H1184   1.111       .  S
C1185      C1186   1.390   1_545  A
C1185      C1190   1.401       .  A
C1185      H1192   1.083       .  S
C1186      C1187   1.401       .  A
C1187      C1194   1.508       .  S
C1187      C1188   1.397       .  A
C1188      C1189   1.425   1_565  A
C1188      H1193   1.081       .  S
C1189      C1190   1.444       .  A
C1190      C1191   1.514       .  S
C1191      H1195   1.112       .  S
C1191      H1196   1.103       .  S
C1191      H1197   1.105       .  S
C1194      H1198   1.107       .  S
C1194      H1199   1.110       .  S
C1194      H1200   1.111       .  S
C1201      C1202   1.392   1_545  A
C1201      C1206   1.408       .  A
C1201      H1208   1.085       .  S
C1202      C1203   1.402       .  A
C1203      C1210   1.505       .  S
C1203      C1204   1.395       .  A
C1204      C1205   1.421   1_565  A
C1204      H1209   1.084       .  S
C1205      C1206   1.447       .  A
C1206      C1207   1.509       .  S
C1207      H1211   1.111       .  S
C1207      H1212   1.106       .  S
C1207      H1213   1.104       .  S
C1210      H1214   1.109       .  S
C1210      H1215   1.109       .  S
C1210      H1216   1.111       .  S
C1217      C1218   1.393       .  A
C1217      C1222   1.407       .  A
C1217      H1224   1.081       .  S
C1218      C1219   1.401       .  A
C1219      C1226   1.508       .  S
C1219      C1220   1.398       .  A
C1220      C1221   1.429       .  A
C1220      H1225   1.081       .  S
C1221      C1222   1.443       .  A
C1222      C1223   1.512       .  S
C1223      H1227   1.111       .  S
C1223      H1228   1.103       .  S
C1223      H1229   1.106       .  S
C1226      H1230   1.107       .  S
C1226      H1231   1.110       .  S
C1226      H1232   1.111       .  S
C1233      C1234   1.423       .  A
C1233      C1238   1.402       .  A
C1233      H1240   1.084       .  S
C1234      C1235   1.447       .  A
C1235      C1242   1.520       .  S
C1235      C1236   1.408       .  A
C1236      C1237   1.402       .  A
C1236      H1241   1.083       .  S
C1237      C1238   1.412       .  A
C1238      C1239   1.508       .  S
C1239      H1243   1.111       .  S
C1239      H1244   1.110       .  S
C1239      H1245   1.110       .  S
C1242      H1246   1.103       .  S
C1242      H1247   1.102       .  S
C1242      H1248   1.111       .  S
C1249      C1250   1.428       .  A
C1249      C1254   1.401       .  A
C1249      H1256   1.076       .  S
C1250      C1251   1.443       .  A
C1251      C1258   1.510       .  S
C1251      C1252   1.410       .  A
C1252      C1253   1.395       .  A
C1252      H1257   1.085       .  S
C1253      C1254   1.400       .  A
C1254      C1255   1.509       .  S
C1255      H1259   1.111       .  S
C1255      H1260   1.110       .  S
C1255      H1261   1.110       .  S
C1258      H1262   1.111       .  S
C1258      H1263   1.095       .  S
C1258      H1264   1.111       .  S
C1265      C1266   1.394       .  A
C1265      C1270   1.409       .  A
C1265      H1272   1.085       .  S
C1266      C1267   1.402       .  A
C1267      C1274   1.506       .  S
C1267      C1268   1.403       .  A
C1268      C1269   1.424       .  A
C1268      H1273   1.082       .  S
C1269      C1270   1.445       .  A
C1270      C1271   1.513       .  S
C1271      H1275   1.111       .  S
C1271      H1276   1.106       .  S
C1271      H1277   1.105       .  S
C1274      H1278   1.110       .  S
C1274      H1279   1.110       .  S
C1274      H1280   1.111       .  S
C1281      C1282   1.394       .  A
C1281      C1286   1.394       .  A
C1281      H1288   1.085       .  S
C1282      C1283   1.413       .  A
C1283      C1290   1.507       .  S
C1283      C1284   1.407       .  A
C1284      C1285   1.418       .  A
C1284      H1289   1.083       .  S
C1285      C1286   1.445       .  A
C1286      C1287   1.516       .  S
C1287      H1291   1.112       .  S
C1287      H1292   1.110   1_554  S
C1287      H1293   1.088       .  S
C1290      H1294   1.110   1_554  S
C1290      H1295   1.110       .  S
C1290      H1296   1.111       .  S
C1297      C1298   1.393   1_554  A
C1297      C1302   1.404       .  A
C1297      H1304   1.084       .  S
C1298      C1299   1.401       .  A
C1299      C1306   1.508       .  S
C1299      C1300   1.395       .  A
C1300      C1301   1.425   1_556  A
C1300      H1305   1.084       .  S
C1301      C1302   1.442       .  A
C1302      C1303   1.513       .  S
C1303      H1307   1.111       .  S
C1303      H1308   1.106       .  S
C1303      H1309   1.102       .  S
C1306      H1310   1.108       .  S
C1306      H1311   1.110       .  S
C1306      H1312   1.111       .  S
C1313      C1314   1.387       .  A
C1313      C1318   1.399       .  A
C1313      H1320   1.085       .  S
C1314      C1315   1.406       .  A
C1315      C1322   1.506       .  S
C1315      C1316   1.410       .  A
C1316      C1317   1.423       .  A
C1316      H1321   1.078       .  S
C1317      C1318   1.447       .  A
C1318      C1319   1.506       .  S
C1319      H1323   1.112       .  S
C1319      H1324   1.078       .  S
C1319      H1325   1.110       .  S
C1322      H1326   1.111       .  S
C1322      H1327   1.110       .  S
C1322      H1328   1.111       .  S
C1329      C1330   1.403       .  A
C1329      C1334   1.413       .  A
C1329      H1336   1.084       .  S
C1330      C1331   1.410       .  A
C1331      C1338   1.515       .  S
C1331      C1332   1.389       .  A
C1332      C1333   1.418       .  A
C1332      H1337   1.070       .  S
C1333      C1334   1.438       .  A
C1334      C1335   1.513       .  S
C1335      H1339   1.111       .  S
C1335      H1340   1.107       .  S
C1335      H1341   1.107       .  S
C1338      H1342   1.110       .  S
C1338      H1343   1.110       .  S
C1338      H1344   1.111       .  S
C1345      C1346   1.404       .  A
C1345      C1350   1.412       .  A
C1345      H1352   1.084       .  S
C1346      C1347   1.412       .  A
C1347      C1354   1.512       .  S
C1347      C1348   1.401       .  A
C1348      C1349   1.426       .  A
C1348      H1353   1.076       .  S
C1349      C1350   1.436       .  A
C1350      C1351   1.508   1_565  S
C1351      H1355   1.110   1_545  S
C1351      H1356   1.111       .  S
C1351      H1357   1.096       .  S
C1354      H1358   1.110   1_565  S
C1354      H1359   1.111       .  S
C1354      H1360   1.111       .  S
C1361      C1362   1.390       .  A
C1361      C1366   1.403       .  A
C1361      H1368   1.086       .  S
C1362      C1363   1.406   1_565  A
C1363      C1370   1.508       .  S
C1363      C1364   1.412       .  A
C1364      C1365   1.427   1_545  A
C1364      H1369   1.075       .  S
C1365      C1366   1.448       .  A
C1366      C1367   1.510       .  S
C1367      H1371   1.111       .  S
C1367      H1372   1.111       .  S
C1367      H1373   1.090       .  S
C1370      H1374   1.111       .  S
C1370      H1375   1.110       .  S
C1370      H1376   1.111       .  S
C1377      C1378   1.414       .  A
C1377      C1382   1.391       .  A
C1377      H1384   1.075       .  S
C1378      C1379   1.440       .  A
C1379      C1386   1.514       .  S
C1379      C1380   1.411       .  A
C1380      C1381   1.401       .  A
C1380      H1385   1.084       .  S
C1381      C1382   1.409       .  A
C1382      C1383   1.507       .  S
C1383      H1387   1.111       .  S
C1383      H1388   1.104       .  S
C1383      H1389   1.109       .  S
C1386      H1390   1.108       .  S
C1386      H1391   1.107       .  S
C1386      H1392   1.111       .  S
C1393      C1394   1.421       .  A
C1393      C1398   1.400       .  A
C1393      H1400   1.075       .  S
C1394      C1395   1.442       .  A
C1395      C1402   1.516       .  S
C1395      C1396   1.408       .  A
C1396      C1397   1.400       .  A
C1396      H1401   1.084       .  S
C1397      C1398   1.409       .  A
C1398      C1399   1.513       .  S
C1399      H1403   1.111       .  S
C1399      H1404   1.110       .  S
C1399      H1405   1.106       .  S
C1402      H1406   1.105       .  S
C1402      H1407   1.107       .  S
C1402      H1408   1.111       .  S
C1409      C1410   1.426       .  A
C1409      C1414   1.403       .  A
C1409      H1416   1.075       .  S
C1410      C1411   1.447       .  A
C1411      C1418   1.516       .  S
C1411      C1412   1.401       .  A
C1412      C1413   1.390       .  A
C1412      H1417   1.085       .  S
C1413      C1414   1.401       .  A
C1414      C1415   1.509       .  S
C1415      H1419   1.111       .  S
C1415      H1420   1.111       .  S
C1415      H1421   1.110       .  S
C1418      H1422   1.105       .  S
C1418      H1423   1.098       .  S
C1418      H1424   1.111       .  S
C1425      C1426   1.390       .  A
C1425      C1430   1.405       .  A
C1425      H1432   1.085       .  S
C1426      C1427   1.399       .  A
C1427      C1434   1.509       .  S
C1427      C1428   1.397       .  A
C1428      C1429   1.427       .  A
C1428      H1433   1.082       .  S
C1429      C1430   1.448       .  A
C1430      C1431   1.514       .  S
C1431      H1435   1.111       .  S
C1431      H1436   1.102       .  S
C1431      H1437   1.105       .  S
C1434      H1438   1.111       .  S
C1434      H1439   1.110       .  S
C1434      H1440   1.111       .  S
C1441      C1442   1.428       .  A
C1441      C1446   1.398       .  A
C1441      H1448   1.084       .  S
C1442      C1443   1.450       .  A
C1443      C1450   1.516       .  S
C1443      C1444   1.407       .  A
C1444      C1445   1.393       .  A
C1444      H1449   1.085       .  S
C1445      C1446   1.400       .  A
C1446      C1447   1.508       .  S
C1447      H1451   1.111       .  S
C1447      H1452   1.111       .  S
C1447      H1453   1.109       .  S
C1450      H1454   1.102       .  S
C1450      H1455   1.102       .  S
C1450      H1456   1.111       .  S
C1457      C1458   1.422   1_556  A
C1457      C1462   1.414       .  A
C1457      H1464   1.083       .  S
C1458      C1459   1.445   1_554  A
C1459      C1466   1.517       .  S
C1459      C1460   1.393       .  A
C1460      C1461   1.395       .  A
C1460      H1465   1.085       .  S
C1461      C1462   1.414       .  A
C1462      C1463   1.505       .  S
C1463      H1467   1.111       .  S
C1463      H1468   1.110       .  S
C1463      H1469   1.110   1_556  S
C1466      H1470   1.088       .  S
C1466      H1471   1.110   1_556  S
C1466      H1472   1.112       .  S
C1473      C1474   1.390   1_556  A
C1473      C1478   1.398       .  A
C1473      H1480   1.086       .  S
C1474      C1475   1.403       .  A
C1475      C1482   1.509       .  S
C1475      C1476   1.407       .  A
C1476      C1477   1.428   1_554  A
C1476      H1481   1.075       .  S
C1477      C1478   1.446       .  A
C1478      C1479   1.511       .  S
C1479      H1483   1.111       .  S
C1479      H1484   1.111       .  S
C1479      H1485   1.090       .  S
C1482      H1486   1.111       .  S
C1482      H1487   1.110       .  S
C1482      H1488   1.111       .  S
C1489      C1490   1.391       .  A
C1489      C1494   1.405       .  A
C1489      H1496   1.086       .  S
C1490      C1491   1.403       .  A
C1491      C1498   1.506       .  S
C1491      C1492   1.404       .  A
C1492      C1493   1.417       .  A
C1492      H1497   1.070       .  S
C1493      C1494   1.447       .  A
C1494      C1495   1.515       .  S
C1495      H1499   1.111       .  S
C1495      H1500   1.095       .  S
C1495      H1501   1.110       .  S
C1498      H1502   1.110       .  S
C1498      H1503   1.110       .  S
C1498      H1504   1.111       .  S
C1505      C1506   1.421       .  A
C1505      C1510   1.409       .  A
C1505      H1512   1.078       .  S
C1506      C1507   1.439       .  A
C1507      C1514   1.508       .  S
C1507      C1508   1.402       .  A
C1508      C1509   1.394       .  A
C1508      H1513   1.084       .  S
C1509      C1510   1.413       .  A
C1510      C1511   1.510       .  S
C1511      H1515   1.111       .  S
C1511      H1516   1.110       .  S
C1511      H1517   1.107       .  S
C1514      H1518   1.103       .  S
C1514      H1519   1.101       .  S
C1514      H1520   1.111       .  S
C1521      C1522   1.421       .  A
C1521      C1526   1.400       .  A
C1521      H1528   1.084       .  S
C1522      C1523   1.449       .  A
C1523      C1530   1.515       .  S
C1523      C1524   1.405       .  A
C1524      C1525   1.397       .  A
C1524      H1529   1.084       .  S
C1525      C1526   1.412       .  A
C1526      C1527   1.508       .  S
C1527      H1531   1.111       .  S
C1527      H1532   1.110       .  S
C1527      H1533   1.106       .  S
C1530      H1534   1.109       .  S
C1530      H1535   1.100       .  S
C1530      H1536   1.112       .  S
C1537      C1538   1.422       .  A
C1537      C1542   1.404       .  A
C1537      H1544   1.075       .  S
C1538      C1539   1.439       .  A
C1539      C1546   1.512       .  S
C1539      C1540   1.408       .  A
C1540      C1541   1.402       .  A
C1540      H1545   1.084       .  S
C1541      C1542   1.413       .  A
C1542      C1543   1.510       .  S
C1543      H1547   1.111       .  S
C1543      H1548   1.108       .  S
C1543      H1549   1.110       .  S
C1546      H1550   1.103       .  S
C1546      H1551   1.111       .  S
C1546      H1552   1.105       .  S
C1553      C1554   1.392       .  A
C1553      C1558   1.399       .  A
C1553      H1560   1.085       .  S
C1554      C1555   1.417       .  A
C1555      C1562   1.508       .  S
C1555      C1556   1.409       .  A
C1556      C1557   1.415       .  A
C1556      H1561   1.075       .  S
C1557      C1558   1.449       .  A
C1558      C1559   1.516       .  S
C1559      H1563   1.112       .  S
C1559      H1564   1.088       .  S
C1559      H1565   1.110       .  S
C1562      H1566   1.110       .  S
C1562      H1567   1.110       .  S
C1562      H1568   1.111       .  S
C1569      C1570   1.392       .  A
C1569      C1574   1.392       .  A
C1569      H1576   1.085   1_455  S
C1570      C1571   1.416       .  A
C1571      C1578   1.506       .  S
C1571      C1572   1.410       .  A
C1572      C1573   1.418       .  A
C1572      H1577   1.084       .  S
C1573      C1574   1.449       .  A
C1574      C1575   1.519       .  S
C1575      H1579   1.112       .  S
C1575      H1580   1.110   1_455  S
C1575      H1581   1.088       .  S
C1578      H1582   1.111   1_455  S
C1578      H1583   1.110       .  S
C1578      H1584   1.111       .  S
C1585      C1586   1.388   1_455  A
C1585      C1590   1.397       .  A
C1585      H1592   1.085       .  S
C1586      C1587   1.405       .  A
C1587      C1594   1.507       .  S
C1587      C1588   1.404       .  A
C1588      C1589   1.419   1_655  A
C1588      H1593   1.078       .  S
C1589      C1590   1.443       .  A
C1590      C1591   1.514       .  S
C1591      H1595   1.111       .  S
C1591      H1596   1.107       .  S
C1591      H1597   1.105       .  S
C1594      H1598   1.110       .  S
C1594      H1599   1.110       .  S
C1594      H1600   1.111       .  S
C1601      C1602   1.427       .  A
C1601      C1606   1.398       .  A
C1601      H1608   1.080       .  S
C1602      C1603   1.447       .  A
C1603      C1610   1.513       .  S
C1603      C1604   1.409       .  A
C1604      C1605   1.393       .  A
C1604      H1609   1.085       .  S
C1605      C1606   1.398       .  A
C1606      C1607   1.509       .  S
C1607      H1611   1.111       .  S
C1607      H1612   1.110       .  S
C1607      H1613   1.111       .  S
C1610      H1614   1.106       .  S
C1610      H1615   1.104       .  S
C1610      H1616   1.111       .  S
C1617      C1618   1.388   1_455  A
C1617      C1622   1.401       .  A
C1617      H1624   1.084       .  S
C1618      C1619   1.405       .  A
C1619      C1626   1.510       .  S
C1619      C1620   1.405       .  A
C1620      C1621   1.426   1_655  A
C1620      H1625   1.073       .  S
C1621      C1622   1.447       .  A
C1622      C1623   1.509       .  S
C1623      H1627   1.111       .  S
C1623      H1628   1.111       .  S
C1623      H1629   1.091       .  S
C1626      H1630   1.109       .  S
C1626      H1631   1.110       .  S
C1626      H1632   1.111       .  S
C1633      C1634   1.429   1_455  A
C1633      C1638   1.400       .  A
C1633      H1640   1.083       .  S
C1634      C1635   1.446       .  A
C1635      C1642   1.517       .  S
C1635      C1636   1.408       .  A
C1636      C1637   1.397       .  A
C1636      H1641   1.085       .  S
C1637      C1638   1.398   1_655  A
C1638      C1639   1.507       .  S
C1639      H1643   1.111       .  S
C1639      H1644   1.111       .  S
C1639      H1645   1.110       .  S
C1642      H1646   1.103       .  S
C1642      H1647   1.111       .  S
C1642      H1648   1.101       .  S
C1649      C1650   1.401       .  A
C1649      C1654   1.410       .  A
C1649      H1656   1.085       .  S
C1650      C1651   1.410       .  A
C1651      C1658   1.509       .  S
C1651      C1652   1.400       .  A
C1652      C1653   1.423       .  A
C1652      H1657   1.084       .  S
C1653      C1654   1.447       .  A
C1654      C1655   1.516       .  S
C1655      H1659   1.110       .  S
C1655      H1660   1.091       .  S
C1655      H1661   1.112       .  S
C1658      H1662   1.107       .  S
C1658      H1663   1.110       .  S
C1658      H1664   1.111       .  S
C1665      C1666   1.427       .  A
C1665      C1670   1.406       .  A
C1665      H1672   1.078       .  S
C1666      C1667   1.442       .  A
C1667      C1674   1.509       .  S
C1667      C1668   1.408       .  A
C1668      C1669   1.393       .  A
C1668      H1673   1.085       .  S
C1669      C1670   1.403       .  A
C1670      C1671   1.507       .  S
C1671      H1675   1.111       .  S
C1671      H1676   1.110       .  S
C1671      H1677   1.109       .  S
C1674      H1678   1.098       .  S
C1674      H1679   1.105       .  S
C1674      H1680   1.111       .  S
C1681      C1682   1.420       .  A
C1681      C1686   1.405       .  A
C1681      H1688   1.079       .  S
C1682      C1683   1.439       .  A
C1683      C1690   1.507       .  S
C1683      C1684   1.400       .  A
C1684      C1685   1.390       .  A
C1684      H1689   1.085       .  S
C1685      C1686   1.404       .  A
C1686      C1687   1.506       .  S
C1687      H1691   1.111       .  S
C1687      H1692   1.110       .  S
C1687      H1693   1.110       .  S
C1690      H1694   1.106       .  S
C1690      H1695   1.098       .  S
C1690      H1696   1.111       .  S
C1697      C1698   1.425       .  A
C1697      C1702   1.397       .  A
C1697      H1704   1.081       .  S
C1698      C1699   1.442       .  A
C1699      C1706   1.515       .  S
C1699      C1700   1.405       .  A
C1700      C1701   1.392       .  A
C1700      H1705   1.081       .  S
C1701      C1702   1.398       .  A
C1702      C1703   1.508       .  S
C1703      H1707   1.111       .  S
C1703      H1708   1.110       .  S
C1703      H1709   1.111       .  S
C1706      H1710   1.105       .  S
C1706      H1711   1.102       .  S
C1706      H1712   1.111       .  S
C1713      C1714   1.395       .  A
C1713      C1718   1.397       .  A
C1713      H1720   1.085       .  S
C1714      C1715   1.416       .  A
C1715      C1722   1.507       .  S
C1715      C1716   1.410       .  A
C1716      C1717   1.419       .  A
C1716      H1721   1.083       .  S
C1717      C1718   1.444       .  A
C1718      C1719   1.514       .  S
C1719      H1723   1.112       .  S
C1719      H1724   1.089       .  S
C1719      H1725   1.110       .  S
C1722      H1726   1.110       .  S
C1722      H1727   1.110       .  S
C1722      H1728   1.111       .  S
C1729      C1730   1.425   1_554  A
C1729      C1734   1.398       .  A
C1729      H1736   1.083       .  S
C1730      C1731   1.452       .  A
C1731      C1738   1.519       .  S
C1731      C1732   1.403       .  A
C1732      C1733   1.391       .  A
C1732      H1737   1.085       .  S
C1733      C1734   1.400   1_556  A
C1734      C1735   1.506       .  S
C1735      H1739   1.111       .  S
C1735      H1740   1.107       .  S
C1735      H1741   1.110       .  S
C1738      H1742   1.101       .  S
C1738      H1743   1.103       .  S
C1738      H1744   1.111       .  S
C1745      C1746   1.400   1_554  A
C1745      C1750   1.408       .  A
C1745      H1752   1.085       .  S
C1746      C1747   1.402       .  A
C1747      C1754   1.510       .  S
C1747      C1748   1.396       .  A
C1748      C1749   1.421       .  A
C1748      H1753   1.075       .  S
C1749      C1750   1.434   1_556  A
C1750      C1751   1.510       .  S
C1751      H1755   1.111       .  S
C1751      H1756   1.099       .  S
C1751      H1757   1.110       .  S
C1754      H1758   1.111       .  S
C1754      H1759   1.109       .  S
C1754      H1760   1.111       .  S
C1761      C1762   1.421       .  A
C1761      C1766   1.404       .  A
C1761      H1768   1.078       .  S
C1762      C1763   1.439       .  A
C1763      C1770   1.516       .  S
C1763      C1764   1.406       .  A
C1764      C1765   1.402       .  A
C1764      H1769   1.083       .  S
C1765      C1766   1.413       .  A
C1766      C1767   1.509       .  S
C1767      H1771   1.111       .  S
C1767      H1772   1.110       .  S
C1767      H1773   1.107       .  S
C1770      H1774   1.103       .  S
C1770      H1775   1.107       .  S
C1770      H1776   1.111       .  S
C1777      C1778   1.422       .  A
C1777      C1782   1.402       .  A
C1777      H1784   1.077       .  S
C1778      C1779   1.444       .  A
C1779      C1786   1.513       .  S
C1779      C1780   1.409       .  A
C1780      C1781   1.393       .  A
C1780      H1785   1.084       .  S
C1781      C1782   1.404       .  A
C1782      C1783   1.508       .  S
C1783      H1787   1.111       .  S
C1783      H1788   1.110       .  S
C1783      H1789   1.111       .  S
C1786      H1790   1.107       .  S
C1786      H1791   1.102       .  S
C1786      H1792   1.111       .  S
C1793      C1794   1.417       .  A
C1793      C1798   1.401       .  A
C1793      H1800   1.078       .  S
C1794      C1795   1.443       .  A
C1795      C1802   1.512       .  S
C1795      C1796   1.398       .  A
C1796      C1797   1.388       .  A
C1796      H1801   1.085       .  S
C1797      C1798   1.405       .  A
C1798      C1799   1.505       .  S
C1799      H1803   1.111       .  S
C1799      H1804   1.109       .  S
C1799      H1805   1.110       .  S
C1802      H1806   1.111       .  S
C1802      H1807   1.105       .  S
C1802      H1808   1.107       .  S
C1809      C1810   1.424       .  A
C1809      C1814   1.392       .  A
C1809      H1816   1.079       .  S
C1810      C1811   1.442       .  A
C1811      C1818   1.509       .  S
C1811      C1812   1.412       .  A
C1812      C1813   1.400       .  A
C1812      H1817   1.085       .  S
C1813      C1814   1.400       .  A
C1814      C1815   1.509       .  S
C1815      H1819   1.111       .  S
C1815      H1820   1.109       .  S
C1815      H1821   1.107       .  S
C1818      H1822   1.111       .  S
C1818      H1823   1.094       .  S
C1818      H1824   1.111       .  S
C1825      C1826   1.390       .  A
C1825      C1830   1.401       .  A
C1825      H1832   1.084       .  S
C1826      C1827   1.409   1_554  A
C1827      C1834   1.506       .  S
C1827      C1828   1.411       .  A
C1828      C1829   1.419   1_556  A
C1828      H1833   1.079       .  S
C1829      C1830   1.441       .  A
C1830      C1831   1.508       .  S
C1831      H1835   1.111       .  S
C1831      H1836   1.106       .  S
C1831      H1837   1.099       .  S
C1834      H1838   1.110       .  S
C1834      H1839   1.111       .  S
C1834      H1840   1.111       .  S
C1841      C1842   1.405       .  A
C1841      C1846   1.414   1_556  A
C1841      H1848   1.085       .  S
C1842      C1843   1.406   1_556  A
C1843      C1850   1.512       .  S
C1843      C1844   1.397       .  A
C1844      C1845   1.431       .  A
C1844      H1849   1.077       .  S
C1845      C1846   1.440       .  A
C1846      C1847   1.510       .  S
C1847      H1851   1.112       .  S
C1847      H1852   1.099       .  S
C1847      H1853   1.111   1_554  S
C1850      H1854   1.111       .  S
C1850      H1855   1.110   1_554  S
C1850      H1856   1.111       .  S
C1857      C1858   1.405       .  A
C1857      C1862   1.407       .  A
C1857      H1864   1.083       .  S
C1858      C1859   1.408       .  A
C1859      C1866   1.512       .  S
C1859      C1860   1.396       .  A
C1860      C1861   1.424       .  A
C1860      H1865   1.075       .  S
C1861      C1862   1.432       .  A
C1862      C1863   1.513       .  S
C1863      H1867   1.111       .  S
C1863      H1868   1.107       .  S
C1863      H1869   1.104       .  S
C1866      H1870   1.111       .  S
C1866      H1871   1.110       .  S
C1866      H1872   1.111       .  S
