geometry optimzed in LAMMPS
_audit_creation_date              2020-11-30 
_audit_creation_method            'lammps2cif' 
_symmetry_space_group_name_H-M    'P1' 
_symmetry_Int_Tables_number       1 
_symmetry_cell_setting            triclinic 
loop_ 
_symmetry_equiv_pos_as_xyz 
  x,y,z 
_cell_length_a                    40.05468562 
_cell_length_b                    40.312972700805375 
_cell_length_c                    39.910573364822326 
_cell_angle_alpha                 89.84406973967941 
_cell_angle_beta                  90.04232575921793 
_cell_angle_gamma                 89.97479467146098 
loop_ 
_atom_site_label 
_atom_site_type_symbol 
_atom_site_fract_x 
_atom_site_fract_y 
_atom_site_fract_z 
_atom_site_charge 
C1          C  0.35625545  0.65428229  0.14726824    -0.02100
C2          C  0.78916655  0.20403866  0.13896123    -0.02100
C3          C  0.79831711  0.65481413  0.14470482    -0.02100
C4          C  0.34289107  0.20957949  0.13766048    -0.02100
O5          O  0.54342009  0.39626914  0.15233098    -0.71400
O6          O  0.61690732  0.45500737  0.16066773    -0.71600
O7          O  0.60898764  0.38820503  0.16092971    -0.71500
O8          O  0.55150976  0.46231776  0.15233854    -0.71500
O9          O  0.54420213  0.46181095  0.20621048    -0.71400
O10         O  0.60346780  0.38988739  0.21512688    -0.71500
O11         O  0.60973542  0.45714823  0.21441142    -0.71400
O12         O  0.53724018  0.39560804  0.20625437    -0.71600
V13         V  0.58020018  0.42536479  0.15764280     1.35200
V14         V  0.57387302  0.42599779  0.20950041     1.35200
C15         C  0.52763515  0.38579879  0.17766955     0.77800
C16         C  0.62468262  0.46780954  0.18853727     0.77900
C17         C  0.61557523  0.37629309  0.18947672     0.77800
C18         C  0.53821912  0.47475418  0.17803798     0.77700
C19         C  0.35140306  0.20698303  0.69545194    -0.02100
C20         C  0.80065619  0.21123546  0.70999603    -0.02100
C21         C  0.79355566  0.65360182  0.69926192    -0.02100
C22         C  0.35841811  0.65640830  0.70729665    -0.02100
O23         O  0.36180597  0.40292349  0.95498363    -0.71400
O24         O  0.36647432  0.45562362  0.87612979    -0.71600
O25         O  0.36814710  0.46821665  0.94277802    -0.71500
O26         O  0.36024146  0.39166550  0.88860308    -0.71500
O27         O  0.30654447  0.39845501  0.88627457    -0.71400
O28         O  0.31402732  0.47100988  0.94581184    -0.71500
O29         O  0.31295095  0.46316908  0.87816139    -0.71400
O30         O  0.30782706  0.40532653  0.95348537    -0.71600
V31         V  0.36314968  0.42978682  0.91578289     1.35200
V32         V  0.31134397  0.43454811  0.91606447     1.35200
C33         C  0.33406805  0.39419600  0.96724512     0.77800
C34         C  0.34023550  0.46691185  0.86264927     0.77900
C35         C  0.34230843  0.48185612  0.95453045     0.77800
C36         C  0.33232538  0.38319301  0.87669224     0.77700
O37         O  0.60312411  0.66425305  0.89488187    -0.71400
O38         O  0.55183723  0.67126471  0.97524451    -0.71600
O39         O  0.53721766  0.66496577  0.91023425    -0.71500
O40         O  0.61707895  0.67024757  0.96061257    -0.71500
O41         O  0.61612288  0.72381661  0.95639057    -0.71400
O42         O  0.53782532  0.71849386  0.90379208    -0.71500
O43         O  0.55065731  0.72468967  0.96914399    -0.71400
O44         O  0.60368046  0.71778192  0.89068033    -0.71600
V45         V  0.57737691  0.66866920  0.93503251     1.35200
V46         V  0.57710229  0.72013488  0.93002704     1.35200
C47         C  0.61290781  0.69000784  0.87938811     0.77800
C48         C  0.54185942  0.69927909  0.98547708     0.77900
C49         C  0.52367341  0.69092784  0.89887405     0.77800
C50         C  0.62971545  0.69793316  0.96800312     0.77700
O51         O  0.79632122  0.46940319  0.89237666    -0.71400
O52         O  0.79616430  0.40576578  0.96208092    -0.71600
O53         O  0.80465813  0.47171802  0.95892492    -0.71500
O54         O  0.78759641  0.40371386  0.89635123    -0.71500
O55         O  0.84103352  0.39477465  0.89262548    -0.71400
O56         O  0.85810693  0.46694738  0.95049721    -0.71500
O57         O  0.84990755  0.40086801  0.95783302    -0.71400
O58         O  0.84901147  0.46032573  0.88428284    -0.71600
V59         V  0.79722760  0.43774776  0.92735810     1.35200
V60         V  0.84853768  0.43103859  0.92137999     1.35200
C61         C  0.82254007  0.47504241  0.87570224     0.77800
C62         C  0.82280733  0.39152376  0.97104228     0.77900
C63         C  0.83410796  0.48086675  0.96531654     0.77800
C64         C  0.81149266  0.38656503  0.88538375     0.77700
O65         O  0.53539393  0.18733098  0.94663245    -0.71400
O66         O  0.60854044  0.17937983  0.88722060    -0.71600
O67         O  0.54315806  0.18428180  0.87986678    -0.71500
O68         O  0.60159342  0.18162400  0.95537127    -0.71500
O69         O  0.59830113  0.12802351  0.95632977    -0.71400
O70         O  0.53745934  0.13073597  0.88308596    -0.71500
O71         O  0.60370734  0.12568888  0.88790618    -0.71400
O72         O  0.53172986  0.13374888  0.94991501    -0.71600
V73         V  0.57229797  0.18208694  0.91748425     1.35200
V74         V  0.56808327  0.13055520  0.91937243     1.35200
C75         C  0.52064691  0.16205842  0.95800464     0.77800
C76         C  0.61669831  0.15153057  0.87536783     0.77900
C77         C  0.53037101  0.15781241  0.86878376     0.77800
C78         C  0.60928239  0.15437703  0.96946556     0.77700
O79         O  0.61091938  0.45778531  0.68998574    -0.71400
O80         O  0.53460940  0.40184698  0.69358026    -0.71600
O81         O  0.60074888  0.39106733  0.69206752    -0.71500
O82         O  0.54395408  0.46772360  0.69095354    -0.71500
O83         O  0.54148297  0.46537629  0.63668253    -0.71400
O84         O  0.60103567  0.39128327  0.63774067    -0.71500
O85         O  0.53413515  0.39892707  0.63936513    -0.71400
O86         O  0.60820557  0.45832491  0.63564135    -0.71600
V87         V  0.57265156  0.42966446  0.69059224     1.35200
V88         V  0.57133862  0.42844033  0.63841183     1.35200
C89         C  0.62185170  0.46858499  0.66229718     0.77800
C90         C  0.52160983  0.39037274  0.66723890     0.77900
C91         C  0.61031164  0.37778987  0.66492771     0.77800
C92         C  0.53221314  0.47898317  0.66363558     0.77700
C93         C  0.80406067  0.15645033  0.65284252    -0.02100
C94         C  0.79907805  0.15554476  0.20129373    -0.02100
C95         C  0.34897959  0.14958441  0.64723480    -0.02100
C96         C  0.35995836  0.16270760  0.20545351    -0.02100
O97         O  0.60976014  0.17289516  0.46638923    -0.71400
O98         O  0.54185199  0.17270262  0.40010700    -0.71600
O99         O  0.60925233  0.17203298  0.39859471    -0.71500
O100        O  0.54298959  0.17299161  0.46669299    -0.71500
O101        O  0.54185507  0.22664616  0.46576608    -0.71400
O102        O  0.61103757  0.22583789  0.39888146    -0.71500
O103        O  0.54294148  0.22647261  0.39870774    -0.71400
O104        O  0.60919619  0.22673258  0.46654715    -0.71600
V105        V  0.57613171  0.17375229  0.43284404     1.35200
V106        V  0.57637322  0.22544175  0.43236454     1.35200
C107        C  0.62037208  0.19990371  0.47845899     0.77800
C108        C  0.52976167  0.19959881  0.38923094     0.77900
C109        C  0.62176521  0.19855284  0.38716754     0.77800
C110        C  0.53031232  0.19960797  0.47735749     0.77700
C111        C  0.79789617  0.70408025  0.20694820    -0.02100
C112        C  0.34867002  0.71814405  0.19913614    -0.02100
C113        C  0.35964622  0.71298957  0.65534146    -0.02100
C114        C  0.79836466  0.71148132  0.64291885    -0.02100
O115        O  0.82130023  0.97057741  0.45741384    -0.71400
O116        O  0.81629370  0.90319152  0.39110515    -0.71600
O117        O  0.81988423  0.90364126  0.45854088    -0.71500
O118        O  0.81835787  0.96943651  0.38977486    -0.71500
O119        O  0.87245027  0.97059345  0.39030609    -0.71400
O120        O  0.87363461  0.89923541  0.45263018    -0.71500
O121        O  0.87018048  0.90462529  0.38511352    -0.71400
O122        O  0.87525139  0.96640079  0.45817622    -0.71600
V123        V  0.81999449  0.93671236  0.42426405     1.35200
V124        V  0.87190914  0.93528154  0.42176025     1.35200
C125        C  0.84891684  0.97971081  0.46975453     0.77800
C126        C  0.84209406  0.89345433  0.37580146     0.77900
C127        C  0.84701643  0.88950025  0.46646643     0.77800
C128        C  0.84532837  0.98100384  0.37801058     0.77700
O129        O  0.62153823  0.90961723  0.70211469    -0.71400
O130        O  0.54302315  0.96194170  0.71127473    -0.71600
O131        O  0.55575305  0.89630380  0.71083041    -0.71500
O132        O  0.60821952  0.97471379  0.70224327    -0.71500
O133        O  0.59721588  0.97600420  0.64889260    -0.71400
O134        O  0.55280407  0.89343159  0.65663514    -0.71500
O135        O  0.53356798  0.95694021  0.65787968    -0.71400
O136        O  0.61658472  0.91231129  0.64813206    -0.71600
V137        V  0.58193533  0.93556444  0.70569842     1.35200
V138        V  0.57515101  0.93465003  0.65394030     1.35200
C139        C  0.63316085  0.90290159  0.67341394     0.77800
C140        C  0.52484257  0.96808418  0.68611038     0.77900
C141        C  0.54541799  0.88140564  0.68492205     0.77800
C142        C  0.61145999  0.98865995  0.67399548     0.77700
O143        O  0.28139866  0.89894877  0.46512075    -0.71400
O144        O  0.28660885  0.96490407  0.39494253    -0.71600
O145        O  0.28346297  0.89679018  0.39747793    -0.71500
O146        O  0.28274348  0.96500490  0.46205585    -0.71500
O147        O  0.33675919  0.96262134  0.46623143    -0.71400
O148        O  0.33764831  0.89621959  0.39850461    -0.71500
O149        O  0.34060987  0.96327750  0.39877281    -0.71400
O150        O  0.33554472  0.89700523  0.46564069    -0.71600
V151        V  0.28455505  0.93130878  0.42965592     1.35200
V152        V  0.33654385  0.92978090  0.43200118     1.35200
C153        C  0.30815712  0.88802881  0.47825890     0.77800
C154        C  0.31490746  0.97638949  0.38606975     0.77900
C155        C  0.31050696  0.88433671  0.38737615     0.77800
C156        C  0.30919419  0.97433370  0.47625233     0.77700
O157        O  0.61280595  0.90459589  0.14789029    -0.71400
O158        O  0.53979467  0.96581945  0.14175088    -0.71600
O159        O  0.60605442  0.97148206  0.14517657    -0.71500
O160        O  0.54603825  0.89925361  0.14289383    -0.71500
O161        O  0.54601968  0.89690648  0.19730500    -0.71400
O162        O  0.59974712  0.97545314  0.19885115    -0.71500
O163        O  0.53450777  0.96286324  0.19573435    -0.71400
O164        O  0.61180303  0.90926291  0.20197847    -0.71600
V165        V  0.57622369  0.93517473  0.14542075     1.35200
V166        V  0.57313704  0.93603329  0.19746675     1.35200
C167        C  0.62486015  0.89661486  0.17627590     0.77800
C168        C  0.52517147  0.97528118  0.16825097     0.77900
C169        C  0.61155311  0.98728142  0.17180819     0.77800
C170        C  0.53609667  0.88546793  0.16945482     0.77700
O171        O  0.54095742  0.64310241  0.38570152    -0.71400
O172        O  0.59903984  0.64212941  0.46114248    -0.71600
O173        O  0.53205509  0.64354893  0.45219827    -0.71500
O174        O  0.60774555  0.64210657  0.39409685    -0.71500
O175        O  0.60951570  0.69582281  0.39533954    -0.71400
O176        O  0.53205952  0.69722770  0.45064919    -0.71500
O177        O  0.59875887  0.69585027  0.46216922    -0.71400
O178        O  0.54351607  0.69691941  0.38423216    -0.71600
V179        V  0.57003067  0.64376565  0.42335258     1.35200
V180        V  0.57097851  0.69542691  0.42320326     1.35200
C181        C  0.53239973  0.67014043  0.37210110     0.77800
C182        C  0.60905891  0.66870375  0.47454958     0.77900
C183        C  0.51849686  0.67062120  0.46070001     0.77800
C184        C  0.62144233  0.66881147  0.38452106     0.77700
C185        C  0.86407109  0.21015455  0.65698945    -0.02100
C186        C  0.85175650  0.21861839  0.18981813    -0.02100
C187        C  0.85561537  0.64999043  0.20183022    -0.02100
C188        C  0.85812280  0.65435621  0.64988924    -0.02100
O189        O  0.11386989  0.72109355  0.39162204    -0.71400
O190        O  0.04423393  0.72941883  0.45523814    -0.71600
O191        O  0.11112749  0.72097055  0.45825142    -0.71500
O192        O  0.04759914  0.72869625  0.38774123    -0.71500
O193        O  0.04426601  0.67486097  0.38617487    -0.71400
O194        O  0.10244500  0.66797217  0.46047792    -0.71500
O195        O  0.03579641  0.67624411  0.45274001    -0.71400
O196        O  0.10986511  0.66754551  0.39427319    -0.71600
V197        V  0.07902289  0.72408317  0.42332709     1.35200
V198        V  0.07309296  0.67270044  0.42352375     1.35200
C199        C  0.12433362  0.69298443  0.38269412     0.77800
C200        C  0.02753394  0.70434401  0.46415828     0.77900
C201        C  0.11846286  0.69290686  0.47065791     0.77800
C202        C  0.03602412  0.70271529  0.37438160     0.77700
O203        O  0.10095032  0.39457842  0.67159151    -0.71400
O204        O  0.04033844  0.46640826  0.67692223    -0.71600
O205        O  0.10600023  0.46149478  0.66709811    -0.71500
O206        O  0.03570463  0.39989203  0.68134404    -0.71500
O207        O  0.04626883  0.39998026  0.73479528    -0.71400
O208        O  0.11240360  0.46659366  0.72082575    -0.71500
O209        O  0.04591648  0.46722909  0.73104368    -0.71400
O210        O  0.11185982  0.39948048  0.72475072    -0.71600
V211        V  0.07097716  0.43071045  0.67528352     1.35200
V212        V  0.07896042  0.43338368  0.72687335     1.35200
C213        C  0.11604875  0.38435066  0.69738950     0.77800
C214        C  0.03242538  0.47885301  0.70483624     0.77900
C215        C  0.12047132  0.47547428  0.69147227     0.77800
C216        C  0.03023807  0.38824120  0.71024203     0.77700
O217        O  0.10295845  0.46449925  0.20373595    -0.71400
O218        O  0.05084522  0.38741678  0.18654810    -0.71600
O219        O  0.11687282  0.40016809  0.19369292    -0.71500
O220        O  0.03752872  0.45234525  0.19611499    -0.71500
O221        O  0.04291838  0.46214006  0.14300051    -0.71400
O222        O  0.11962444  0.40729177  0.13987121    -0.71500
O223        O  0.05322823  0.39681029  0.13315413    -0.71400
O224        O  0.10883667  0.47193718  0.15017908    -0.71600
V225        V  0.07705173  0.42612374  0.19397237     1.35200
V226        V  0.08100013  0.43434580  0.14257425     1.35200
C227        C  0.11538746  0.48100511  0.17987096     0.77800
C228        C  0.04265564  0.37900132  0.15714228     0.77900
C229        C  0.13200844  0.39517086  0.16629379     0.77800
C230        C  0.02734986  0.46715672  0.17005195     0.77700
O231        O  0.11038034  0.18905181  0.44533202    -0.71400
O232        O  0.04374414  0.18721438  0.37752081    -0.71600
O233        O  0.04241929  0.19377748  0.44441790    -0.71500
O234        O  0.11022549  0.18247219  0.37925255    -0.71500
O235        O  0.10485931  0.12886671  0.38245443    -0.71400
O236        O  0.04036229  0.14037746  0.45161337    -0.71500
O237        O  0.03765204  0.13405740  0.38431217    -0.71400
O238        O  0.10798421  0.13542026  0.44929240    -0.71600
V239        V  0.07647249  0.18706191  0.41186229     1.35200
V240        V  0.07269387  0.13566751  0.41693663     1.35200
C241        C  0.12204268  0.16242921  0.45744251     0.77800
C242        C  0.02955619  0.16050606  0.36913357     0.77900
C243        C  0.02964245  0.16897407  0.45901330     0.77800
C244        C  0.11911557  0.15393159  0.36989477     0.77700
O245        O  0.78243692  0.39254780  0.39537776    -0.71400
O246        O  0.78226300  0.45940581  0.46348024    -0.71600
O247        O  0.78019503  0.45930349  0.39521406    -0.71500
O248        O  0.78445561  0.39263840  0.46353051    -0.71500
O249        O  0.83856406  0.39242148  0.45971799    -0.71400
O250        O  0.83421694  0.46225239  0.39575907    -0.71500
O251        O  0.83632753  0.45888492  0.46307279    -0.71400
O252        O  0.83637092  0.39619980  0.39244089    -0.71600
V253        V  0.78329481  0.42594729  0.42938178     1.35200
V254        V  0.83525452  0.42741489  0.42782525     1.35200
C255        C  0.80951751  0.38373485  0.38159939     0.77800
C256        C  0.80951650  0.47018238  0.47538180     0.77900
C257        C  0.80670074  0.47210857  0.38368739     0.77800
C258        C  0.81232897  0.38120450  0.47315053     0.77700
C259        C  0.28770789  0.20629664  0.64839502    -0.02100
C260        C  0.30676045  0.65032347  0.20970585    -0.02100
C261        C  0.29862792  0.65822174  0.64921592    -0.02100
C262        C  0.30213215  0.21673659  0.20775480    -0.02100
O263        O  0.37209402  0.39744051  0.40192713    -0.71400
O264        O  0.36878167  0.46841508  0.46496241    -0.71600
O265        O  0.36473918  0.40260711  0.46805660    -0.71500
O266        O  0.37634405  0.46474371  0.39692235    -0.71500
O267        O  0.32268439  0.46650766  0.39017035    -0.71400
O268        O  0.31103590  0.40679533  0.46252276    -0.71500
O269        O  0.31529351  0.47232049  0.45744214    -0.71400
O270        O  0.31829222  0.39999962  0.39688579    -0.71600
V271        V  0.36955988  0.43363187  0.43261886     1.35200
V272        V  0.31795876  0.43657113  0.42665798     1.35200
C273        C  0.34534425  0.38503237  0.39062100     0.77800
C274        C  0.34108583  0.48105836  0.47341244     0.77900
C275        C  0.33582890  0.39409119  0.47729389     0.77800
C276        C  0.35135944  0.47566433  0.38075666     0.77700
C277        C  0.32517422  0.18573733  0.17807214    -0.02100
C278        C  0.82319475  0.18397829  0.16767176    -0.02100
C279        C  0.32580175  0.68129419  0.17629176    -0.02100
C280        C  0.31929865  0.17781729  0.67425952    -0.02100
C281        C  0.83228284  0.18386015  0.68419601    -0.02100
C282        C  0.82745154  0.67986473  0.17508823    -0.02100
C283        C  0.32800232  0.68398173  0.68054998    -0.02100
C284        C  0.29285535  0.15539095  0.15803861    -0.02100
C285        C  0.29173087  0.15106939  0.70533301    -0.02100
C286        C  0.85226625  0.15711010  0.13844452    -0.02100
C287        C  0.29339603  0.70515794  0.14910340    -0.02100
C288        C  0.85465025  0.70978785  0.14710852    -0.02100
O289        O  0.03762801  0.90202233  0.21888437    -0.71400
O290        O  0.10891776  0.96318062  0.21661646    -0.71600
O291        O  0.04214665  0.96851337  0.22085692    -0.71500
O292        O  0.10453651  0.89716114  0.21353504    -0.71500
O293        O  0.09798027  0.89800332  0.15943274    -0.71400
O294        O  0.04165093  0.97232498  0.16655767    -0.71500
O295        O  0.10775404  0.96358718  0.16236965    -0.71400
O296        O  0.03171510  0.90659428  0.16500421    -0.71600
V297        V  0.07318756  0.93274031  0.21648180     1.35200
V298        V  0.06976930  0.93506647  0.16439007     1.35200
C299        C  0.02222206  0.89403297  0.19256088     0.77800
C300        C  0.12128958  0.97321847  0.18933141     0.77900
C301        C  0.03207719  0.98306944  0.19453919     0.77800
C302        C  0.11180889  0.88572210  0.18492255     0.77700
C303        C  0.29694985  0.70767004  0.70943020    -0.02100
O304        O  0.34498735  0.90634357  0.89509027    -0.71400
O305        O  0.34079689  0.96292910  0.97074308    -0.71600
O306        O  0.34662289  0.89722848  0.96211739    -0.71500
O307        O  0.33933188  0.97142314  0.90371779    -0.71500
O308        O  0.28532612  0.96685828  0.90429070    -0.71400
O309        O  0.29266685  0.89309521  0.96334690    -0.71500
O310        O  0.28676287  0.95860397  0.97150583    -0.71400
O311        O  0.29094840  0.90136500  0.89670497    -0.71600
V312        V  0.34189965  0.93444328  0.93306350     1.35200
V313        V  0.28998336  0.93010953  0.93395740     1.35200
C314        C  0.31846415  0.89445188  0.88297581     0.77800
C315        C  0.31313095  0.97029839  0.98408707     0.77900
C316        C  0.32083238  0.88268117  0.97305436     0.77800
C317        C  0.31119676  0.98096328  0.89299943     0.77700
C318        C  0.86117083  0.16190235  0.71842646    -0.02100
O319        O  0.05193320  0.19878652  0.89449080    -0.71400
O320        O  0.10458125  0.19566327  0.97276513    -0.71600
O321        O  0.03966932  0.20241418  0.96075801    -0.71500
O322        O  0.11712242  0.19210609  0.90685512    -0.71500
O323        O  0.12187019  0.24551299  0.90310789    -0.71400
O324        O  0.04671661  0.25581209  0.96136130    -0.71500
O325        O  0.11256884  0.24873505  0.97037998    -0.71400
O326        O  0.05552769  0.25238261  0.89327052    -0.71600
V327        V  0.07839743  0.19837527  0.93366236     1.35200
V328        V  0.08400662  0.24970134  0.93195999     1.35200
C329        C  0.04480672  0.22582850  0.88008912     0.77800
C330        C  0.11754404  0.22137801  0.98523244     0.77900
C331        C  0.03092168  0.23055633  0.97163219     0.77800
C332        C  0.13260519  0.21694234  0.89532600     0.77700
C333        C  0.84700861  0.70882553  0.70708728    -0.02100
O334        O  0.11199116  0.62844399  0.95701986    -0.71400
O335        O  0.04180113  0.62641035  0.89214148    -0.71600
O336        O  0.10955256  0.61899980  0.89070024    -0.71500
O337        O  0.04556994  0.63564914  0.95977179    -0.71500
O338        O  0.05032394  0.68864122  0.95115808    -0.71400
O339        O  0.11483562  0.67210954  0.88310273    -0.71500
O340        O  0.04804037  0.67936824  0.88403428    -0.71400
O341        O  0.11681953  0.68142756  0.94942820    -0.71600
V342        V  0.07711450  0.62836399  0.92462067     1.35200
V343        V  0.08228574  0.67930701  0.91702554     1.35200
C344        C  0.12650956  0.65539820  0.96418050     0.77800
C345        C  0.03328580  0.65264703  0.87675353     0.77900
C346        C  0.12383683  0.64289118  0.87587965     0.77800
C347        C  0.03814449  0.66502530  0.96816076     0.77700
O348        O  0.82857104  0.96201233  0.89697874    -0.71400
O349        O  0.82021252  0.89217279  0.95953923    -0.71600
O350        O  0.82480155  0.89531616  0.89276363    -0.71500
O351        O  0.82279076  0.95882283  0.96409033    -0.71500
O352        O  0.76899892  0.96254050  0.95869953    -0.71400
O353        O  0.77075565  0.89717607  0.88982515    -0.71500
O354        O  0.76613938  0.89452396  0.95683617    -0.71400
O355        O  0.77489873  0.96462141  0.89132258    -0.71600
V356        V  0.82296850  0.92715302  0.92825198     1.35200
V357        V  0.77117337  0.92972801  0.92428061     1.35200
C358        C  0.80359889  0.97547052  0.88321082     0.77800
C359        C  0.79225896  0.88099982  0.96875451     0.77900
C360        C  0.79792316  0.88477018  0.87974244     0.77800
C361        C  0.79547581  0.97203301  0.97309703     0.77700
O362        O  0.03440597  0.94738695  0.71956609    -0.71400
O363        O  0.10352230  0.88443684  0.70503227    -0.71600
O364        O  0.10145045  0.94935009  0.71937561    -0.71500
O365        O  0.03680497  0.88254172  0.70548167    -0.71500
O366        O  0.03781773  0.89229282  0.65189065    -0.71400
O367        O  0.09873472  0.96260044  0.66660877    -0.71500
O368        O  0.10501681  0.89779476  0.65222738    -0.71400
O369        O  0.03230858  0.95670855  0.66606455    -0.71600
V370        V  0.06908122  0.91613716  0.71134223     1.35200
V371        V  0.06853663  0.92709298  0.66019617     1.35200
C372        C  0.02121838  0.96252990  0.69513274     0.77800
C373        C  0.11618186  0.88061962  0.67628889     0.77900
C374        C  0.11072603  0.96763568  0.69543169     0.77800
C375        C  0.02632831  0.87605125  0.67641221     0.77700
C376        C  0.82427447  0.68193404  0.67393486    -0.02100
C377        C  0.79779466  0.85740950  0.85464195    -0.11600
C378        C  0.82327570  0.85365439  0.83062730     0.03900
C379        C  0.82354127  0.82582357  0.80958770    -0.12100
C380        C  0.79848030  0.80127056  0.81124421     0.18800
C381        C  0.77290289  0.80520731  0.83511125    -0.09200
C382        C  0.77239413  0.83326322  0.85601824    -0.02100
H383        H  0.84415186  0.82297466  0.79235223     0.05300
C384        C  0.80281482  0.77031331  0.79078951     0.20700
H385        H  0.75286425  0.83534659  0.87464931     0.10500
C386        C  0.83110489  0.75165790  0.79628469    -0.15500
C387        C  0.84045274  0.72583542  0.77475208     0.03400
C388        C  0.82662896  0.72240641  0.74060294    -0.10800
C389        C  0.79619007  0.74006417  0.73815686    -0.00800
C390        C  0.78290470  0.76128296  0.76332767    -0.06000
H391        H  0.84518328  0.75631996  0.81905221     0.06500
H392        H  0.78319795  0.73972267  0.71586939     0.09800
Br393      Br  0.74049952  0.77124927  0.84298379    -0.05700
Br394      Br  0.85779595  0.88620239  0.82461207    -0.02600
Br395      Br  0.86453775  0.69522948  0.80330263     0.00200
Br396      Br  0.74134946  0.78288454  0.75521836    -0.04200
C397        C  0.00768906  0.65257108  0.84990321    -0.11600
C398        C  0.97327583  0.65395417  0.85688533     0.03900
C399        C  0.95026583  0.65874877  0.83064919    -0.12100
C400        C  0.96107321  0.66285335  0.79727812     0.18800
C401        C  0.99549167  0.66089977  0.79046184    -0.09200
C402        C  0.01822080  0.65527668  0.81654378    -0.02100
H403        H  0.92394964  0.66058152  0.83651043     0.05300
C404        C  0.93647250  0.67247210  0.77080986     0.20700
H405        H  0.04442719  0.65385522  0.81081713     0.10500
C406        C  0.93504360  0.70516944  0.76031026    -0.15500
C407        C  0.90733675  0.71781341  0.74233245     0.03400
C408        C  0.88143621  0.69614105  0.72710785    -0.10800
C409        C  0.88566355  0.66335669  0.73865751    -0.00800
C410        C  0.91134677  0.65132461  0.75996974    -0.06000
H411        H  0.95387075  0.72183680  0.77026071     0.06500
H412        H  0.87008453  0.64584176  0.72928517     0.09800
Br413      Br  0.01300146  0.66700286  0.74623494    -0.05700
Br414      Br  0.95696479  0.65163608  0.90200214    -0.02600
Br415      Br  0.90612867  0.76391769  0.75500899     0.00200
Br416      Br  0.91123081  0.60596815  0.77482917    -0.04200
C417        C  0.86329121  0.74081319  0.68912092    -0.11600
C418        C  0.86195219  0.77598175  0.69816269     0.03900
C419        C  0.88723489  0.79829736  0.68819990    -0.12100
C420        C  0.91447146  0.78814686  0.67001450     0.18800
C421        C  0.91565696  0.75593790  0.65852734    -0.09200
C422        C  0.89059363  0.73335892  0.66809482    -0.02100
H423        H  0.88711286  0.82390420  0.69662500     0.05300
C424        C  0.94402548  0.80974208  0.66866940     0.20700
H425        H  0.89334149  0.70847517  0.66072830     0.10500
C426        C  0.97184380  0.80086431  0.68809315    -0.15500
C427        C  0.99968156  0.82145547  0.68974460     0.03400
C428        C  0.99984024  0.85150729  0.67170548    -0.10800
C429        C  0.97245368  0.85987498  0.65140372    -0.00800
C430        C  0.94438889  0.83939441  0.65010648    -0.06000
H431        H  0.97160066  0.77800969  0.70247675     0.06500
H432        H  0.97224741  0.88314704  0.63775530     0.09800
Br433      Br  0.95343551  0.74315244  0.63164797    -0.05700
Br434      Br  0.83301824  0.80230034  0.72535293    -0.02600
Br435      Br  0.03683430  0.80705206  0.71654549     0.00200
Br436      Br  0.90694720  0.85332819  0.62361215    -0.04200
C437        C  0.89376381  0.18388319  0.73164057    -0.11600
C438        C  0.92933956  0.17966527  0.72196950     0.03900
C439        C  0.95603916  0.19418521  0.73988603    -0.12100
C440        C  0.95131441  0.21042201  0.76995987     0.18800
C441        C  0.91841796  0.21770615  0.77869312    -0.09200
C442        C  0.89145220  0.20571791  0.75922842    -0.02100
H443        H  0.98158889  0.19031058  0.73183457     0.05300
C444        C  0.98015555  0.21618423  0.79350356     0.20700
H445        H  0.86857115  0.21381689  0.76694408     0.10500
C446        C  0.98567894  0.24781909  0.80745902    -0.15500
C447        C  0.00757853  0.25242275  0.83467196     0.03400
C448        C  0.02470097  0.22493166  0.84851719    -0.10800
C449        C  0.02212171  0.19434580  0.83193410    -0.00800
C450        C  0.00092810  0.18985841  0.80454551    -0.06000
H451        H  0.97200045  0.26896939  0.79779688     0.06500
H452        H  0.03655581  0.17325722  0.84059354     0.09800
Br453      Br  0.90883373  0.24237323  0.81869056    -0.05700
Br454      Br  0.95015878  0.14999156  0.69068903    -0.02600
Br455      Br  0.01160663  0.29645211  0.85224063     0.00200
Br456      Br  0.00264502  0.14668871  0.78437722    -0.04200
C457        C  0.83998828  0.14508216  0.74929444    -0.11600
C458        C  0.84730084  0.14415308  0.78577427     0.03900
C459        C  0.84190151  0.11526256  0.80538791    -0.12100
C460        C  0.83114775  0.08579320  0.79170147     0.18800
C461        C  0.82501122  0.08524496  0.75760295    -0.09200
C462        C  0.82323381  0.11543255  0.73904778    -0.02100
H463        H  0.84582177  0.11539456  0.83231476     0.05300
C464        C  0.82436750  0.05654775  0.81386455     0.20700
H465        H  0.81696296  0.11388666  0.71305947     0.10500
C466        C  0.79165574  0.04406949  0.81661705    -0.15500
C467        C  0.78386319  0.01789526  0.83876098     0.03400
C468        C  0.80922777  0.00337817  0.85878793    -0.10800
C469        C  0.84198663  0.01591418  0.85546231    -0.00800
C470        C  0.84959351  0.04202905  0.83355791    -0.06000
H471        H  0.77190510  0.05514681  0.80175806     0.06500
H472        H  0.86216298  0.00546184  0.87016232     0.09800
Br473      Br  0.82885060  0.04268843  0.73579859    -0.05700
Br474      Br  0.85804873  0.17714176  0.81930280    -0.02600
Br475      Br  0.73823960  0.00344131  0.83995642     0.00200
Br476      Br  0.89522745  0.05619424  0.83077163    -0.04200
C477        C  0.88392683  0.12750142  0.71649239    -0.11600
C478        C  0.90704733  0.11538056  0.74310947     0.03900
C479        C  0.92677934  0.08698250  0.73885514    -0.12100
C480        C  0.92277167  0.06660071  0.71157398     0.18800
C481        C  0.89549868  0.07240023  0.69088885    -0.09200
C482        C  0.87672180  0.10204295  0.69435515    -0.02100
H483        H  0.94616198  0.08080895  0.75683953     0.05300
C484        C  0.94656795  0.03878951  0.70637349     0.20700
H485        H  0.85715120  0.10753977  0.67893260     0.10500
C486        C  0.95006600  0.01448654  0.73139159    -0.15500
C487        C  0.97379531  0.98907794  0.72847192     0.03400
C488        C  0.99452379  0.98759435  0.69981539    -0.10800
C489        C  0.99052979  0.01168956  0.67471596    -0.00800
C490        C  0.96739338  0.03726667  0.67792436    -0.06000
H491        H  0.93435279  0.01545153  0.75346241     0.06500
H492        H  0.00643904  0.01143592  0.65276994     0.09800
Br493      Br  0.88416244  0.03937873  0.65870003    -0.05700
Br494      Br  0.92004561  0.13406974  0.78566020    -0.02600
Br495      Br  0.97570106  0.95711981  0.76413503     0.00200
Br496      Br  0.96784965  0.07033579  0.64347520    -0.04200
C497        C  0.31061612  0.73979087  0.73164273    -0.11600
C498        C  0.32326052  0.73926576  0.76639501     0.03900
C499        C  0.33139397  0.76810793  0.78433736    -0.12100
C500        C  0.31729871  0.79808542  0.77659044     0.18800
C501        C  0.30033705  0.80068296  0.74629293    -0.09200
C502        C  0.29834291  0.77306107  0.72451181    -0.02100
H503        H  0.34494654  0.76668451  0.80794626     0.05300
C504        C  0.31654571  0.82379217  0.80323733     0.20700
H505        H  0.28328108  0.77910632  0.70353404     0.10500
C506        C  0.33179844  0.85474610  0.79784155    -0.15500
C507        C  0.33327905  0.87836464  0.82359534     0.03400
C508        C  0.31914383  0.87104830  0.85505635    -0.10800
C509        C  0.30405681  0.84043856  0.86042498    -0.00800
C510        C  0.30299717  0.81673443  0.83535445    -0.06000
H511        H  0.34289774  0.86035867  0.77374191     0.06500
H512        H  0.29337296  0.83470051  0.88472910     0.09800
Br513      Br  0.27685212  0.84064300  0.73471298    -0.05700
Br514      Br  0.32133208  0.70785529  0.80254728    -0.02600
Br515      Br  0.35332580  0.92051559  0.81430654     0.00200
Br516      Br  0.28289977  0.77551927  0.84835403    -0.04200
C517        C  0.14178848  0.85498293  0.67110414    -0.11600
C518        C  0.17559106  0.86245705  0.66509603     0.03900
C519        C  0.19954682  0.83695448  0.66598402    -0.12100
C520        C  0.19001005  0.80369686  0.67106954     0.18800
C521        C  0.15552805  0.79638104  0.67390222    -0.09200
C522        C  0.13209024  0.82193267  0.67469347    -0.02100
H523        H  0.22567515  0.84323050  0.66356738     0.05300
C524        C  0.21588249  0.77744211  0.67672770     0.20700
H525        H  0.10596731  0.81594988  0.67833319     0.10500
C526        C  0.21371645  0.75840580  0.70518405    -0.15500
C527        C  0.23141042  0.72868836  0.70758392     0.03400
C528        C  0.26295737  0.72288740  0.69054816    -0.10800
C529        C  0.26338827  0.74250024  0.66084589    -0.00800
C530        C  0.23977818  0.76802722  0.65317736    -0.06000
H531        H  0.19358101  0.76340335  0.72265326     0.06500
H532        H  0.28030169  0.73604487  0.64197350     0.09800
Br533      Br  0.13817216  0.75214716  0.67655735    -0.05700
Br534      Br  0.19007274  0.90700902  0.65663636    -0.02600
Br535      Br  0.19830010  0.69683096  0.71947693     0.00200
Br536      Br  0.23870019  0.78894191  0.61055476    -0.04200
C537        C  0.27836168  0.68768445  0.74014059    -0.11600
C538        C  0.25829170  0.70363770  0.76694745     0.03900
C539        C  0.24090175  0.68548528  0.79100552    -0.12100
C540        C  0.23612587  0.65192474  0.78825143     0.18800
C541        C  0.25404868  0.63505975  0.76346769    -0.09200
C542        C  0.27592200  0.65283806  0.74130057    -0.02100
H543        H  0.22713904  0.69825475  0.81057438     0.05300
C544        C  0.20663153  0.63872350  0.80701506     0.20700
H545        H  0.28779770  0.63942594  0.72174626     0.10500
C546        C  0.17541529  0.65140685  0.79733076    -0.15500
C547        C  0.14813914  0.65158039  0.81882592     0.03400
C548        C  0.15070181  0.63748271  0.85089157    -0.10800
C549        C  0.18114624  0.62245280  0.86027775    -0.00800
C550        C  0.20926355  0.62371959  0.83888740    -0.06000
H551        H  0.17296204  0.66469964  0.77407214     0.06500
H552        H  0.18386176  0.61217961  0.88523860     0.09800
Br553      Br  0.25004746  0.58766429  0.76117341    -0.05700
Br554      Br  0.24725986  0.74975007  0.77667712    -0.02600
Br555      Br  0.10919453  0.67479352  0.80383719     0.00200
Br556      Br  0.25150302  0.60868455  0.85560662    -0.04200
C557        C  0.99373263  0.87073759  0.19408548    -0.11600
C558        C  0.99254735  0.84429739  0.21727492     0.03900
C559        C  0.96575478  0.82210075  0.21674638    -0.12100
C560        C  0.94018440  0.82453963  0.19271564     0.18800
C561        C  0.94046944  0.85245077  0.17099140    -0.09200
C562        C  0.96712161  0.87488929  0.17173241    -0.02100
H563        H  0.96611112  0.80167242  0.23418480     0.05300
C564        C  0.91615893  0.79618540  0.18861219     0.20700
H565        H  0.96722658  0.89561397  0.15437444     0.10500
C566        C  0.88197707  0.80132342  0.18608835    -0.15500
C567        C  0.86099645  0.77732217  0.17073354     0.03400
C568        C  0.86992878  0.74190646  0.16884313    -0.10800
C569        C  0.90389924  0.73820849  0.17986050    -0.00800
C570        C  0.92714653  0.76370831  0.18440272    -0.06000
H571        H  0.87302820  0.82633010  0.19065434     0.06500
H572        H  0.91440871  0.71436219  0.17943635     0.09800
Br573      Br  0.90663499  0.86165623  0.13856907    -0.05700
Br574      Br  0.02830929  0.83459138  0.24788424    -0.02600
Br575      Br  0.83348401  0.80499829  0.14341600     0.00200
Br576      Br  0.97376009  0.75225773  0.18130498    -0.04200
C577        C  0.83545873  0.72440161  0.11337406    -0.11600
C578        C  0.84651596  0.72396620  0.07802955     0.03900
C579        C  0.83647064  0.74868752  0.05484387    -0.12100
C580        C  0.81176503  0.77155204  0.06246324     0.18800
C581        C  0.79442671  0.76641467  0.09234191    -0.09200
C582        C  0.80657424  0.74348260  0.11647153    -0.02100
H583        H  0.84784935  0.74987707  0.03023155     0.05300
C584        C  0.80446398  0.80005031  0.03914001     0.20700
H585        H  0.79315210  0.73995232  0.13795167     0.10500
C586        C  0.78076852  0.79701919  0.01317907    -0.15500
C587        C  0.77452897  0.82353377  0.99062404     0.03400
C588        C  0.79202343  0.85379665  0.99405656    -0.10800
C589        C  0.81522488  0.85658563  0.01997079    -0.00800
C590        C  0.82199774  0.83031517  0.04158456    -0.06000
H591        H  0.76790221  0.77365464  0.00980014     0.06500
H592        H  0.82968037  0.87918736  0.02242659     0.09800
Br593      Br  0.75746835  0.79409847  0.10366020    -0.05700
Br594      Br  0.87331367  0.69178056  0.05438326    -0.02600
Br595      Br  0.74453901  0.81621888  0.95400224     0.00200
Br596      Br  0.85846723  0.83759028  0.07076565    -0.04200
C597        C  0.01671508  0.67185700  0.99780259    -0.11600
C598        C  0.02406145  0.65868944  0.02971825     0.03900
C599        C  0.00440135  0.66722381  0.05760787    -0.12100
C600        C  0.97541461  0.68687976  0.05439142     0.18800
C601        C  0.96930688  0.70136088  0.02221511    -0.09200
C602        C  0.98994116  0.69390338  0.99479374    -0.02100
H603        H  0.01218287  0.65846367  0.08199944     0.05300
C604        C  0.95174058  0.69165859  0.08387666     0.20700
H605        H  0.98469388  0.70511037  0.97063668     0.10500
C606        C  0.94003530  0.72286926  0.09129489    -0.15500
C607        C  0.91085841  0.72808684  0.11029797     0.03400
C608        C  0.89096946  0.70125257  0.12650369    -0.10800
C609        C  0.90806161  0.67044043  0.12188375    -0.00800
C610        C  0.93778776  0.66569603  0.10266753    -0.06000
H611        H  0.95279812  0.74368240  0.07974901     0.06500
H612        H  0.89779506  0.64813871  0.12923283     0.09800
Br613      Br  0.93395502  0.73209179  0.01237166    -0.05700
Br614      Br  0.06170792  0.63005892  0.03687319    -0.02600
Br615      Br  0.90067048  0.77421291  0.10512529     0.00200
Br616      Br  0.95927745  0.62317463  0.10351626    -0.04200
C617        C  0.31350109  0.72799505  0.12031878    -0.11600
C618        C  0.31419959  0.72534720  0.08361042     0.03900
C619        C  0.33537738  0.74545602  0.06417516    -0.12100
C620        C  0.33680454  0.77866825  0.07254542     0.18800
C621        C  0.32959414  0.78674176  0.10578191    -0.09200
C622        C  0.32067949  0.76131332  0.12866633    -0.02100
H623        H  0.33905299  0.73944197  0.03791463     0.05300
C624        C  0.33352821  0.80399574  0.04544957     0.20700
H625        H  0.32093370  0.76635085  0.15401099     0.10500
C626        C  0.30345097  0.82179006  0.04383005    -0.15500
C627        C  0.29827832  0.84663951  0.02004261     0.03400
C628        C  0.32377999  0.85454259  0.99692859    -0.10800
C629        C  0.35311782  0.83533361  0.99711244    -0.00800
C630        C  0.35769036  0.80957004  0.02035822    -0.06000
H631        H  0.28372660  0.81640476  0.06159213     0.06500
H632        H  0.37240360  0.83999396  0.97867134     0.09800
Br633      Br  0.33139546  0.83221307  0.11958937    -0.05700
Br634      Br  0.27591043  0.72663959  0.05316967    -0.02600
Br635      Br  0.25610777  0.86911813  0.02205943     0.00200
Br636      Br  0.39636261  0.78227842  0.01513075    -0.04200
C637        C  0.13668080  0.85952499  0.18049904    -0.11600
C638        C  0.17094652  0.86711732  0.17998946     0.03900
C639        C  0.19412649  0.84243403  0.17222897    -0.12100
C640        C  0.18360705  0.81009093  0.16498149     0.18800
C641        C  0.14927522  0.80252468  0.16540550    -0.09200
C642        C  0.12603770  0.82737200  0.17270286    -0.02100
H643        H  0.22053423  0.84825721  0.17262930     0.05300
C644        C  0.20922852  0.78389683  0.16265838     0.20700
H645        H  0.09961634  0.82159438  0.17241438     0.10500
C646        C  0.21884727  0.76802716  0.19148226    -0.15500
C647        C  0.24688974  0.74607536  0.19312364     0.03400
C648        C  0.26533797  0.73473997  0.16243650    -0.10800
C649        C  0.25103441  0.75276542  0.13399338    -0.00800
C650        C  0.22593982  0.77669967  0.13366848    -0.06000
H651        H  0.20350204  0.77486611  0.21298069     0.06500
H652        H  0.25811589  0.74734529  0.10941468     0.09800
Br653      Br  0.13297661  0.75872603  0.15675368    -0.05700
Br654      Br  0.18718961  0.91088095  0.18927789    -0.02600
Br655      Br  0.24959463  0.74624585  0.24127499     0.00200
Br656      Br  0.21333989  0.79688683  0.09186651    -0.04200
C657        C  0.26718951  0.68355435  0.12563706    -0.11600
C658        C  0.23032844  0.68584203  0.12544662     0.03900
C659        C  0.21070347  0.67575264  0.09839963    -0.12100
C660        C  0.22415727  0.66089050  0.07072633     0.18800
C661        C  0.25834478  0.65528186  0.07005160    -0.09200
C662        C  0.27877356  0.66688862  0.09693744    -0.02100
H663        H  0.18388368  0.67981249  0.09852892     0.05300
C664        C  0.20232000  0.65722808  0.04102274     0.20700
H665        H  0.30468027  0.66661549  0.09376779     0.10500
C666        C  0.19751941  0.68495070  0.02038060    -0.15500
C667        C  0.17388181  0.68477785  0.99465900    -0.01400
C668        C  0.15368177  0.65636377  0.98957838    -0.10800
C669        C  0.15920759  0.62826331  0.00994247    -0.00800
C670        C  0.18324139  0.62855355  0.03545310    -0.06000
H671        H  0.21177885  0.70729524  0.02479999     0.06500
H672        H  0.14431647  0.60610610  0.00655033     0.09800
Br673      Br  0.27713013  0.63932664  0.02875089    -0.05700
Br674      Br  0.19926274  0.69863031  0.15959625    -0.02600
Br675      Br  0.17143048  0.72441559  0.96784475     0.00200
Br676      Br  0.18860753  0.58964328  0.06256311    -0.04200
C677        C  0.88020728  0.17843589  0.11599722    -0.11600
C678        C  0.87381622  0.20504168  0.09281742     0.03900
C679        C  0.89965695  0.22543927  0.07988835    -0.12100
C680        C  0.93109041  0.21168396  0.07403093     0.18800
C681        C  0.93869221  0.18265562  0.09127594    -0.09200
C682        C  0.91466860  0.16753181  0.11197602    -0.02100
H683        H  0.89326835  0.24768600  0.06621073     0.05300
C684        C  0.95298536  0.22314800  0.04574065     0.20700
H685        H  0.92291341  0.14314570  0.11858887     0.10500
C686        C  0.98136949  0.24261266  0.05244577    -0.15500
C687        C  0.00628388  0.24749321  0.02791429     0.03400
C688        C  0.00300189  0.23280629  0.99596100    -0.10800
C689        C  0.97402989  0.21504633  0.98879533    -0.00800
C690        C  0.94937944  0.21004092  0.01296145    -0.06000
H691        H  0.98516173  0.25236071  0.07741116     0.06500
H692        H  0.97129776  0.20346543  0.96445377     0.09800
Br693      Br  0.98059271  0.16022833  0.08442442    -0.05700
Br694      Br  0.85150387  0.19697664  0.05171280    -0.02600
Br695      Br  0.04607414  0.27069172  0.04059911     0.00200
Br696      Br  0.91362400  0.18215938  0.99895698    -0.04200
C697        C  0.00877578  0.01123351  0.19540863    -0.11600
C698        C  0.01214542  0.03776507  0.17257300     0.03900
C699        C  0.98632736  0.06068672  0.16887160    -0.12100
C700        C  0.95718142  0.05833431  0.18821382     0.18800
C701        C  0.95431484  0.03234436  0.21179376    -0.09200
C702        C  0.98021427  0.00931520  0.21553060    -0.02100
H703        H  0.98868227  0.08000548  0.15009382     0.05300
C704        C  0.92931351  0.08154276  0.18098456     0.20700
H705        H  0.97714540  0.98873087  0.23276876     0.10500
C706        C  0.90043153  0.06975724  0.16656243    -0.15500
C707        C  0.87910690  0.09139771  0.14851091     0.03400
C708        C  0.87639069  0.12724848  0.15601063    -0.10800
C709        C  0.90637868  0.13606016  0.17338683    -0.00800
C710        C  0.93320020  0.11551316  0.18198124    -0.06000
H711        H  0.89856241  0.04300700  0.16383007     0.06500
H712        H  0.91302360  0.16020159  0.17633960     0.09800
Br713      Br  0.91504196  0.02576344  0.23812770    -0.05700
Br714      Br  0.05154492  0.04401428  0.14581675    -0.02600
Br715      Br  0.86863508  0.06384198  0.11048129     0.00200
Br716      Br  0.97463991  0.13592627  0.19502547    -0.04200
C717        C  0.83425913  0.13496047  0.10917124    -0.11600
C718        C  0.84855678  0.12500932  0.07631934     0.03900
C719        C  0.83224674  0.10288144  0.05421499    -0.12100
C720        C  0.80516725  0.08415867  0.06414977     0.18800
C721        C  0.79153746  0.09089421  0.09570641    -0.09200
C722        C  0.80554843  0.11595484  0.11704990    -0.02100
H723        H  0.84303569  0.09679296  0.03001883     0.05300
C724        C  0.79661510  0.05412834  0.04348728     0.20700
H725        H  0.79405975  0.12039733  0.14033469     0.10500
C726        C  0.81126070  0.02348601  0.05201442    -0.15500
C727        C  0.81071236  0.99638348  0.02988803     0.03400
C728        C  0.79451896  0.99908123  0.99861520    -0.10800
C729        C  0.77791903  0.02891122  0.99096993    -0.00800
C730        C  0.77928903  0.05634767  0.01269361    -0.06000
H731        H  0.82431305  0.02085268  0.07556922     0.06500
H732        H  0.76502579  0.03141610  0.96721962     0.09800
Br733      Br  0.75275989  0.06642189  0.10834864    -0.05700
Br734      Br  0.89348861  0.12501451  0.05869544    -0.02600
Br735      Br  0.83204922  0.95606010  0.04385235     0.00200
Br736      Br  0.75769615  0.09632757  0.99847293    -0.04200
C737        C  0.31406744  0.12414616  0.72963243    -0.11600
C738        C  0.31794055  0.12711064  0.76573750     0.03900
C739        C  0.30245198  0.10525095  0.78819128    -0.12100
C740        C  0.30326575  0.07165172  0.78040856     0.18800
C741        C  0.30843012  0.06331566  0.74680710    -0.09200
C742        C  0.31249543  0.08882192  0.72258868    -0.02100
H743        H  0.29919868  0.11252142  0.81422959     0.05300
C744        C  0.30447578  0.04708679  0.80830177     0.20700
H745        H  0.30534110  0.08040898  0.69859725     0.10500
C746        C  0.27960291  0.04769643  0.83314708    -0.15500
C747        C  0.28176215  0.02744473  0.86168330     0.03400
C748        C  0.30910430  0.00576236  0.86566210    -0.10800
C749        C  0.33464384  0.00624425  0.84163910    -0.00800
C750        C  0.33278661  0.02671345  0.81342359    -0.06000
H751        H  0.25885549  0.06474830  0.83084818     0.06500
H752        H  0.35633661  0.99048131  0.84475502     0.09800
Br753      Br  0.30001744  0.01869543  0.73211486    -0.05700
Br754      Br  0.35945035  0.12293016  0.78870056    -0.02600
Br755      Br  0.24855878  0.03290414  0.89584846     0.00200
Br756      Br  0.37131478  0.02755717  0.78477692    -0.04200
C757        C  0.16150248  0.21278196  0.87202896    -0.11600
C758        C  0.17992125  0.18283620  0.86948098     0.03900
C759        C  0.20411566  0.17910425  0.84429505    -0.12100
C760        C  0.21106725  0.20484558  0.82160412     0.18800
C761        C  0.19399156  0.23521998  0.82526348    -0.09200
C762        C  0.16971499  0.23898293  0.85023640    -0.02100
H763        H  0.21685707  0.15552904  0.84170469     0.05300
C764        C  0.23158429  0.19752955  0.79127777     0.20700
H765        H  0.15631519  0.26227653  0.85174656     0.10500
C766        C  0.21508184  0.19135219  0.76176585    -0.15500
C767        C  0.23115576  0.17639119  0.73423252     0.03400
C768        C  0.26840922  0.17402471  0.73130586    -0.10800
C769        C  0.28303497  0.18440355  0.76171753    -0.00800
C770        C  0.26587968  0.19240358  0.79177106    -0.06000
H771        H  0.18815821  0.19482130  0.76218065     0.06500
H772        H  0.30867884  0.18250061  0.76293068     0.09800
Br773      Br  0.20210322  0.27228855  0.79637819    -0.05700
Br774      Br  0.17392806  0.14610128  0.89962700    -0.02600
Br775      Br  0.19373107  0.15441891  0.71299244     0.00200
Br776      Br  0.28908319  0.19425665  0.83375947    -0.04200
C777        C  0.26056264  0.12348156  0.69780937    -0.11600
C778        C  0.24280373  0.10829427  0.66950427     0.03900
C779        C  0.21969694  0.08194838  0.67349545    -0.12100
C780        C  0.20915954  0.07055174  0.70419591     0.18800
C781        C  0.22371627  0.08370347  0.73239878    -0.09200
C782        C  0.24762998  0.10856916  0.72900120    -0.02100
H783        H  0.20788213  0.06984707  0.65219484     0.05300
C784        C  0.18200097  0.04574072  0.70553013     0.20700
H785        H  0.25445301  0.11849180  0.75284434     0.10500
C786        C  0.18814677  0.01488146  0.72058764    -0.15500
C787        C  0.16457237  0.98945343  0.71883238     0.03400
C788        C  0.13476736  0.99446378  0.70076640    -0.10800
C789        C  0.12821123  0.02548766  0.68636505    -0.00800
C790        C  0.15122831  0.05125865  0.68904052    -0.06000
H791        H  0.21182647  0.01022343  0.73286833     0.06500
H792        H  0.10501817  0.02969040  0.67298892     0.09800
Br793      Br  0.20841016  0.07241088  0.77659169    -0.05700
Br794      Br  0.23795039  0.11630650  0.62340928    -0.02600
Br795      Br  0.17559605  0.94776035  0.73933159     0.00200
Br796      Br  0.13901296  0.09330402  0.66974786    -0.04200
C797        C  0.30585589  0.13204726  0.12575062    -0.11600
C798        C  0.33412501  0.10885100  0.12376377     0.03900
C799        C  0.33097058  0.07670194  0.10966824    -0.12100
C800        C  0.30606971  0.06992186  0.08673498     0.18800
C801        C  0.27960008  0.09171272  0.08437627    -0.09200
C802        C  0.27877839  0.11964290  0.10477480    -0.02100
H803        H  0.35065317  0.05818506  0.11205721     0.05300
C804        C  0.31003092  0.04252220  0.06259168     0.20700
H805        H  0.25515725  0.13127335  0.10293416     0.10500
C806        C  0.28773909  0.01576945  0.06356487    -0.15500
C807        C  0.28805546  0.99167945  0.03838957     0.03400
C808        C  0.31198294  0.99354712  0.01243960    -0.10800
C809        C  0.33504843  0.01953590  0.01241465    -0.00800
C810        C  0.33385406  0.04423405  0.03658174    -0.06000
H811        H  0.26920225  0.01436862  0.08328999     0.06500
H812        H  0.35314513  0.02165454  0.99233811     0.09800
Br813      Br  0.24358352  0.08498256  0.05320731    -0.05700
Br814      Br  0.37874362  0.11464515  0.10758414    -0.02600
Br815      Br  0.25515786  0.95734182  0.04106430     0.00200
Br816      Br  0.36352485  0.08078216  0.02985508    -0.04200
C817        C  0.15105672  0.99526916  0.19003229    -0.11600
C818        C  0.16822290  0.00594016  0.16097692     0.03900
C819        C  0.19604409  0.02672604  0.16408911    -0.12100
C820        C  0.20733153  0.03755936  0.19558573     0.18800
C821        C  0.19060790  0.02652413  0.22445223    -0.09200
C822        C  0.16307940  0.00554481  0.22151561    -0.02100
H823        H  0.20839435  0.03540138  0.14156336     0.05300
C824        C  0.23314934  0.06396675  0.19659072     0.20700
H825        H  0.15078608  0.99755741  0.24430948     0.10500
C826        C  0.22267878  0.09657728  0.20110782    -0.15500
C827        C  0.23702307  0.12010799  0.17965617     0.03400
C828        C  0.27258360  0.12241902  0.17533592    -0.10800
C829        C  0.28399323  0.08788199  0.17405750    -0.00800
C830        C  0.26437662  0.05973022  0.18162524    -0.06000
H831        H  0.19714425  0.10054985  0.20931222     0.06500
H832        H  0.30809268  0.08055615  0.16752249     0.09800
Br833      Br  0.20399749  0.03878376  0.26866418    -0.05700
Br834      Br  0.15528605  0.99406309  0.11623937    -0.02600
Br835      Br  0.20780827  0.11208529  0.14142509     0.00200
Br836      Br  0.28102621  0.01636637  0.17059469    -0.04200
C837        C  0.26139570  0.17824550  0.14224508    -0.11600
C838        C  0.22576919  0.18291308  0.15227237     0.03900
C839        C  0.20097623  0.19330731  0.12915880    -0.12100
C840        C  0.20761538  0.19757565  0.09557797     0.18800
C841        C  0.24023136  0.19425779  0.08496310    -0.09200
C842        C  0.26572786  0.18784491  0.10837259    -0.02100
H843        H  0.17523673  0.19670517  0.13691019     0.05300
C844        C  0.18048070  0.20528171  0.07145704     0.20700
H845        H  0.28911956  0.18323963  0.09806304     0.10500
C846        C  0.17788381  0.23740838  0.05797936    -0.15500
C847        C  0.15694188  0.24408145  0.03055507     0.03400
C848        C  0.13782569  0.21814419  0.01632557    -0.10800
C849        C  0.13887809  0.18671410  0.03166882    -0.00800
C850        C  0.15999549  0.18009022  0.05853236    -0.06000
H851        H  0.19333272  0.25709815  0.06785841     0.06500
H852        H  0.12405170  0.16642939  0.02196126     0.09800
Br853      Br  0.25011813  0.19744712  0.03786833    -0.05700
Br854      Br  0.20065007  0.17875158  0.19446338    -0.02600
Br855      Br  0.15737394  0.28854760  0.01330830     0.00200
Br856      Br  0.16134402  0.13530352  0.07419999    -0.04200
C857        C  0.31689798  0.23354789  0.24360685    -0.11600
C858        C  0.31812664  0.21911486  0.27800521     0.03900
C859        C  0.32506206  0.23821171  0.30740558    -0.12100
C860        C  0.33185467  0.27198371  0.30579550     0.18800
C861        C  0.32729526  0.28740788  0.27549274    -0.09200
C862        C  0.31686725  0.26898152  0.24821949    -0.02100
H863        H  0.32600817  0.22656479  0.33192126     0.05300
C864        C  0.33793038  0.29304508  0.33554121     0.20700
H865        H  0.30102923  0.28551940  0.23607235     0.10500
C866        C  0.36920708  0.30854023  0.33882865    -0.15500
C867        C  0.37279182  0.33812970  0.35703449     0.03400
C868        C  0.34455739  0.35273922  0.37244626    -0.10800
C869        C  0.31400223  0.33547632  0.37127130    -0.00800
C870        C  0.31055135  0.30607645  0.35313464    -0.06000
H871        H  0.39027926  0.29916010  0.32469832     0.06500
H872        H  0.29215399  0.34541436  0.38368388     0.09800
Br873      Br  0.32846231  0.33524058  0.27097774    -0.05700
Br874      Br  0.31293633  0.17461758  0.29294656    -0.02600
Br875      Br  0.41609146  0.35852712  0.35678896     0.00200
Br876      Br  0.26685921  0.28689870  0.34959497    -0.04200
C877        C  0.31827838  0.62685269  0.63114359    -0.11600
C878        C  0.31643054  0.59131782  0.64155663     0.03900
C879        C  0.32532846  0.56503705  0.61971411    -0.12100
C880        C  0.33549620  0.57068161  0.58694643     0.18800
C881        C  0.34042465  0.60327703  0.57703772    -0.09200
C882        C  0.33012583  0.62947618  0.59744846    -0.02100
H883        H  0.32085981  0.53955220  0.62717159     0.05300
C884        C  0.33438635  0.54407678  0.56085153     0.20700
H885        H  0.32610802  0.65013906  0.58245738     0.10500
C886        C  0.31179141  0.54786132  0.53404092    -0.15500
C887        C  0.31364558  0.52807255  0.50537090     0.03400
C888        C  0.33852259  0.50342911  0.50290388    -0.10800
C889        C  0.35970516  0.49809169  0.53064277    -0.00800
C890        C  0.35739260  0.51770030  0.55964320    -0.06000
H891        H  0.29354641  0.56762869  0.53460601     0.06500
H892        H  0.37784457  0.47816462  0.53000923     0.09800
Br893      Br  0.35725767  0.61278249  0.53281920    -0.05700
Br894      Br  0.29184523  0.57091077  0.67899567    -0.02600
Br895      Br  0.28280990  0.53772776  0.46974403     0.00200
Br896      Br  0.38577981  0.50707325  0.59678503    -0.04200
C897        C  0.35531108  0.49890386  0.35184528    -0.11600
C898        C  0.33089336  0.50165536  0.32633947     0.03900
C899        C  0.33408999  0.52576569  0.30125467    -0.12100
C900        C  0.36183048  0.54702915  0.29980228     0.18800
C901        C  0.38698686  0.54335443  0.32445373    -0.09200
C902        C  0.38357884  0.51949973  0.34997714    -0.02100
H903        H  0.31425310  0.52832756  0.28294999     0.05300
C904        C  0.36118774  0.57486684  0.27475987     0.20700
H905        H  0.40284787  0.51761442  0.36894809     0.10500
C906        C  0.36108177  0.60710351  0.28608399    -0.15500
C907        C  0.34933729  0.63387742  0.26624343     0.03400
C908        C  0.33498279  0.62891172  0.23219872    -0.10800
C909        C  0.34265971  0.59671057  0.22088143    -0.00800
C910        C  0.35452548  0.56995349  0.24094239    -0.06000
H911        H  0.36760752  0.61070084  0.31222559     0.06500
H912        H  0.33414989  0.59155143  0.19663300     0.09800
Br913      Br  0.42664700  0.56984970  0.32483082    -0.05700
Br914      Br  0.29305205  0.47257223  0.32303515    -0.02600
Br915      Br  0.35435588  0.67098266  0.29599359     0.00200
Br916      Br  0.35960219  0.52569789  0.22324832    -0.04200
C917        C  0.30309672  0.23907412  0.62611242    -0.11600
C918        C  0.30066251  0.27554787  0.63490997     0.03900
C919        C  0.30778043  0.30137611  0.61198161    -0.12100
C920        C  0.30850751  0.29573687  0.57805525     0.18800
C921        C  0.30428253  0.26384744  0.56697860    -0.09200
C922        C  0.30490155  0.23749332  0.58969457    -0.02100
H923        H  0.31026014  0.32699681  0.62001433     0.05300
C924        C  0.31610172  0.32267439  0.55435467     0.20700
H925        H  0.30643268  0.21674729  0.57444692     0.10500
C926        C  0.34719922  0.32268639  0.53828300    -0.15500
C927        C  0.35466419  0.34599514  0.51354568     0.03400
C928        C  0.33051356  0.36998203  0.50456447    -0.10800
C929        C  0.29949206  0.37003510  0.52107052    -0.00800
C930        C  0.29216995  0.34660146  0.54572227    -0.06000
H931        H  0.36544228  0.30376712  0.54422658     0.06500
H932        H  0.28055716  0.38810745  0.51446210     0.09800
Br933      Br  0.29658820  0.25517494  0.52005193    -0.05700
Br934      Br  0.27768210  0.30124760  0.66962688    -0.02600
Br935      Br  0.39714765  0.34152556  0.49164464     0.00200
Br936      Br  0.24851045  0.34689145  0.56522272    -0.04200
C937        C  0.27029273  0.20223108  0.22841344    -0.11600
C938        C  0.24650739  0.22237199  0.24824616     0.03900
C939        C  0.22257711  0.20789302  0.26893158    -0.12100
C940        C  0.22197547  0.17433497  0.27465774     0.18800
C941        C  0.24490892  0.15439347  0.25823987    -0.09200
C942        C  0.26740491  0.16836012  0.23456775    -0.02100
H943        H  0.20483857  0.22316321  0.28251243     0.05300
C944        C  0.19852962  0.16167730  0.30017248     0.20700
H945        H  0.28627680  0.15440325  0.22428922     0.10500
C946        C  0.16877562  0.14623284  0.29003051    -0.15500
C947        C  0.14290753  0.14091237  0.31308139     0.03400
C948        C  0.14711043  0.15093301  0.34656679    -0.10800
C949        C  0.17778594  0.16382981  0.35702423    -0.00800
C950        C  0.20337556  0.16940382  0.33418259    -0.06000
H951        H  0.16488423  0.14035002  0.26384224     0.06500
H952        H  0.18118593  0.17130728  0.38282491     0.09800
Br953      Br  0.24919579  0.11032649  0.27445490    -0.05700
Br954      Br  0.24127364  0.26969629  0.25385874    -0.02600
Br955      Br  0.10128297  0.12355825  0.29714515     0.00200
Br956      Br  0.24335391  0.19013716  0.35030736    -0.04200
C957        C  0.26401127  0.18532919  0.62055219    -0.11600
C958        C  0.22700066  0.18642947  0.61674560     0.03900
C959        C  0.21018939  0.18121596  0.58640174    -0.12100
C960        C  0.22604485  0.17039237  0.55813583     0.18800
C961        C  0.26064364  0.16655090  0.55993352    -0.09200
C962        C  0.27779007  0.17138011  0.59083055    -0.02100
H963        H  0.18328813  0.18446053  0.58457869     0.05300
C964        C  0.20430604  0.16343115  0.52840049     0.20700
H965        H  0.30336722  0.16935884  0.58877023     0.10500
C966        C  0.20426216  0.18553476  0.50116074    -0.15500
C967        C  0.17816802  0.18541573  0.47747443     0.03400
C968        C  0.15132367  0.16268890  0.48061376    -0.10800
C969        C  0.15237644  0.13951533  0.50675361    -0.00800
C970        C  0.17791546  0.14002779  0.53068452    -0.06000
H971        H  0.22360450  0.20422506  0.49931452     0.06500
H972        H  0.13223639  0.12179171  0.50959216     0.09800
Br973      Br  0.28613516  0.16013995  0.51981731    -0.05700
Br974      Br  0.19106365  0.19159264  0.64767256    -0.02600
Br975      Br  0.18088828  0.21687268  0.44144766     0.00200
Br976      Br  0.17326610  0.10955455  0.56736896    -0.04200
C977        C  0.28629410  0.24871514  0.18685354    -0.11600
C978        C  0.29964667  0.28245347  0.18133783     0.03900
C979        C  0.27841402  0.31025084  0.17563105    -0.12100
C980        C  0.24391276  0.30702845  0.17355615     0.18800
C981        C  0.23055387  0.27541071  0.17591002    -0.09200
C982        C  0.25152664  0.24819260  0.18050211    -0.02100
H983        H  0.28892255  0.33491732  0.17319790     0.05300
C984        C  0.22135841  0.33581821  0.16840021     0.20700
H985        H  0.23823971  0.22732143  0.18554791     0.10500
C986        C  0.20150886  0.33668120  0.13939095    -0.15500
C987        C  0.17278127  0.35632918  0.13771783     0.03400
C988        C  0.16370449  0.37618555  0.16538516    -0.10800
C989        C  0.18534011  0.37762415  0.19311729    -0.00800
C990        C  0.21410628  0.35788746  0.19466779    -0.06000
H991        H  0.20674749  0.31979529  0.11902615     0.06500
H992        H  0.17943397  0.39359559  0.21408269     0.09800
Br993      Br  0.18301965  0.26766785  0.17578182    -0.05700
Br994      Br  0.34441554  0.29853832  0.18635848    -0.02600
Br995      Br  0.14522201  0.35141915  0.09862164     0.00200
Br996      Br  0.24139108  0.36043885  0.23404740    -0.04200
C997        C  0.27885787  0.62096203  0.19805983    -0.11600
C998        C  0.27339355  0.58990824  0.21640801     0.03900
C999        C  0.24123276  0.57858844  0.22564485    -0.12100
C1000       C  0.21541236  0.58330684  0.20281816     0.18800
C1001       C  0.21905109  0.60945133  0.18044504    -0.09200
C1002       C  0.24860547  0.62894591  0.18106857    -0.02100
H1003       H  0.23886703  0.55804373  0.24320066     0.05300
C1004       C  0.18935177  0.55713561  0.19755011     0.20700
H1005       H  0.24817678  0.65046778  0.16810744     0.10500
C1006       C  0.16156629  0.55477079  0.21894955    -0.15500
C1007       C  0.13634110  0.53100227  0.21321193     0.03400
C1008       C  0.13915716  0.50855518  0.18617747    -0.10800
C1009       C  0.16649258  0.51140507  0.16471677    -0.00800
C1010       C  0.19110389  0.53524491  0.16986499    -0.06000
H1011       H  0.15903363  0.57198514  0.23957081     0.06500
H1012       H  0.16901012  0.49455458  0.14374450     0.09800
Br1013     Br  0.18300201  0.61841746  0.15006041    -0.05700
Br1014     Br  0.28610521  0.54783970  0.19749566    -0.02600
Br1015     Br  0.09721818  0.53226923  0.24082456     0.00200
Br1016     Br  0.22570857  0.53599357  0.13700720    -0.04200
C1017       C  0.26500028  0.63396899  0.65583985    -0.11600
C1018       C  0.25051282  0.61247979  0.62908439     0.03900
C1019       C  0.22722257  0.58745564  0.63576677    -0.12100
C1020       C  0.21048504  0.58603316  0.66571334     0.18800
C1021       C  0.21509152  0.61238519  0.68769780    -0.09200
C1022       C  0.24145637  0.63577209  0.68225470    -0.02100
H1023       H  0.22171142  0.56875163  0.61707244     0.05300
C1024       C  0.18695664  0.55798257  0.67236727     0.20700
H1025       H  0.24115690  0.65781964  0.69570914     0.10500
C1026       C  0.19222440  0.53746472  0.70042354    -0.15500
C1027       C  0.17125565  0.51038360  0.70725583     0.03400
C1028       C  0.14459646  0.50288835  0.68531787    -0.10800
C1029       C  0.13980076  0.52307426  0.65692798    -0.00800
C1030       C  0.16033389  0.55044951  0.65049017    -0.06000
H1031       H  0.21303930  0.54233731  0.71696076     0.06500
H1032       H  0.11925697  0.51811556  0.63999514     0.09800
Br1033     Br  0.18139027  0.61778252  0.72135516    -0.05700
Br1034     Br  0.25906574  0.61020810  0.58175957    -0.02600
Br1035     Br  0.18148668  0.48390953  0.74598368     0.00200
Br1036     Br  0.14958964  0.57755342  0.61231164    -0.04200
C1037       C  0.25640394  0.22893438  0.66381331    -0.11600
C1038       C  0.24208019  0.23419666  0.69662552     0.03900
C1039       C  0.21027093  0.24891286  0.70117166    -0.12100
C1040       C  0.19649401  0.26902995  0.67663975     0.18800
C1041       C  0.20964286  0.26780344  0.64471787    -0.09200
C1042       C  0.23735748  0.24795679  0.63854707    -0.02100
H1043       H  0.19912255  0.25077355  0.72588567     0.05300
C1044       C  0.17501567  0.29703120  0.68630377     0.20700
H1045       H  0.24391940  0.24732968  0.61228790     0.10500
C1046       C  0.19041855  0.32744013  0.69366183    -0.15500
C1047       C  0.17150426  0.35604225  0.69855725     0.03400
C1048       C  0.13665936  0.35444178  0.69564448    -0.10800
C1049       C  0.12107595  0.32375692  0.68980044    -0.00800
C1050       C  0.14008048  0.29491843  0.68571370    -0.06000
H1051       H  0.21730961  0.32915060  0.69482770     0.06500
H1052       H  0.09412360  0.32230861  0.68816125     0.09800
Br1053     Br  0.18972961  0.29170240  0.60817143    -0.05700
Br1054     Br  0.26291138  0.25145562  0.73511722    -0.02600
Br1055     Br  0.19435749  0.39694399  0.70709553     0.00200
Br1056     Br  0.11778750  0.25336112  0.67931833    -0.04200
C1057       C  0.27607708  0.68112089  0.62170191    -0.11600
C1058       C  0.28285699  0.68774057  0.58685005     0.03900
C1059       C  0.25883496  0.68246563  0.56151371    -0.12100
C1060       C  0.22503153  0.68634971  0.56893405     0.18800
C1061       C  0.21630445  0.69055586  0.60239504    -0.09200
C1062       C  0.24067140  0.68756847  0.62744366    -0.02100
H1063       H  0.26646040  0.68166600  0.53541448     0.05300
C1064       C  0.19944566  0.68789481  0.54200964     0.20700
H1065       H  0.23017737  0.68759962  0.65192392     0.10500
C1066       C  0.18710421  0.65847811  0.52810333    -0.15500
C1067       C  0.16107516  0.65912061  0.50448512     0.03400
C1068       C  0.14581662  0.68973051  0.49563394    -0.10800
C1069       C  0.15884099  0.71894776  0.50922046    -0.00800
C1070       C  0.18571962  0.71827703  0.53127186    -0.06000
H1071       H  0.19791523  0.63492847  0.53547646     0.06500
H1072       H  0.14862115  0.74282125  0.50202690     0.09800
Br1073     Br  0.17062326  0.69614678  0.61554254    -0.05700
Br1074     Br  0.29125455  0.73240836  0.57331878    -0.02600
Br1075     Br  0.14973895  0.61759740  0.48398718     0.00200
Br1076     Br  0.20362291  0.76011453  0.54328674    -0.04200
C1077       C  0.28169084  0.66317386  0.23877245    -0.11600
C1078       C  0.28179460  0.65189229  0.27361503     0.03900
C1079       C  0.26134836  0.66682071  0.29725179    -0.12100
C1080       C  0.22988953  0.67632376  0.28703571     0.18800
C1081       C  0.22305842  0.67818456  0.25292785    -0.09200
C1082       C  0.25008207  0.67641016  0.23018109    -0.02100
H1083       H  0.26533113  0.66198220  0.32373182     0.05300
C1084       C  0.20365140  0.68041811  0.31210223     0.20700
H1085       H  0.24608586  0.68517317  0.20553916     0.10500
C1086       C  0.19857715  0.71160490  0.32633116    -0.15500
C1087       C  0.17331103  0.71646540  0.34985634     0.03400
C1088       C  0.15235843  0.68956638  0.35898644    -0.10800
C1089       C  0.15823082  0.65817892  0.34488035    -0.00800
C1090       C  0.18373816  0.65343882  0.32176461    -0.06000
H1091       H  0.21444714  0.73219892  0.31913053     0.06500
H1092       H  0.14278817  0.63714053  0.35159770     0.09800
Br1093     Br  0.17828007  0.68750960  0.23842921    -0.05700
Br1094     Br  0.28381903  0.60636467  0.28948188    -0.02600
Br1095     Br  0.17033117  0.76010272  0.36891519     0.00200
Br1096     Br  0.19040262  0.60976321  0.30391586    -0.04200
C1097       C  0.88106981  0.66867578  0.61751404    -0.11600
C1098       C  0.86973103  0.67392028  0.58347289     0.03900
C1099       C  0.88822227  0.69415529  0.56087475    -0.12100
C1100       C  0.92315937  0.69309486  0.56164991     0.18800
C1101       C  0.93720015  0.67626579  0.58882205    -0.09200
C1102       C  0.91678725  0.66496885  0.61508406    -0.02100
H1103       H  0.87616632  0.70403905  0.53871216     0.05300
C1104       C  0.94475531  0.70368969  0.53274546     0.20700
H1105       H  0.93064606  0.64794914  0.62910007     0.10500
C1106       C  0.97301038  0.72346178  0.53946287    -0.15500
C1107       C  0.99984899  0.72524588  0.51698635     0.03400
C1108       C  0.99851906  0.70747979  0.48672034    -0.10800
C1109       C  0.96905427  0.69093761  0.47822318    -0.00800
C1110       C  0.94209519  0.68938058  0.50040941    -0.06000
H1111       H  0.97553520  0.73535083  0.56355230     0.06500
H1112       H  0.96727765  0.67843639  0.45426975     0.09800
Br1113     Br  0.98355835  0.66312781  0.58945997    -0.05700
Br1114     Br  0.86926296  0.63636399  0.55334961    -0.02600
Br1115     Br  0.03923074  0.74862869  0.53081999     0.00200
Br1116     Br  0.90379132  0.66624049  0.48401576    -0.04200
C1117       C  0.88631392  0.63552720  0.67493192    -0.11600
C1118       C  0.92142239  0.64307343  0.68416643     0.03900
C1119       C  0.94417911  0.61841137  0.69488369    -0.12100
C1120       C  0.93527908  0.58552140  0.69830553     0.18800
C1121       C  0.90130202  0.57827370  0.69671354    -0.09200
C1122       C  0.87849982  0.60312241  0.68711793    -0.02100
H1123       H  0.97013089  0.62446528  0.69963749     0.05300
C1124       C  0.96186413  0.55959711  0.70179333     0.20700
H1125       H  0.85499692  0.59439534  0.68261181     0.10500
C1126       C  0.96068854  0.53649583  0.72829364    -0.15500
C1127       C  0.98376469  0.51032422  0.73043080     0.03400
C1128       C  0.00884293  0.50706253  0.70589431    -0.10800
C1129       C  0.01109752  0.53097835  0.68051960    -0.00800
C1130       C  0.98843542  0.55718925  0.67845196    -0.06000
H1131       H  0.94133221  0.53840818  0.74710823     0.06500
H1132       H  0.03073410  0.52919939  0.66192434     0.09800
Br1133     Br  0.88499352  0.53354011  0.70021851    -0.05700
Br1134     Br  0.94757577  0.68283669  0.68330270    -0.02600
Br1135     Br  0.97825760  0.47847849  0.76577442     0.00200
Br1136     Br  0.99563924  0.58788569  0.64231628    -0.04200
C1137       C  0.84455488  0.62199548  0.62853968    -0.11600
C1138       C  0.86411692  0.59206497  0.62067037     0.03900
C1139       C  0.85057504  0.56472955  0.60391760    -0.12100
C1140       C  0.82420459  0.56889767  0.58198472     0.18800
C1141       C  0.80799290  0.59976883  0.58243529    -0.09200
C1142       C  0.81795540  0.62471804  0.60596047    -0.02100
H1143       H  0.86475725  0.54184006  0.60250552     0.05300
C1144       C  0.81973408  0.54395866  0.55430846     0.20700
H1145       H  0.80901945  0.64874843  0.60322062     0.10500
C1146       C  0.78886331  0.52796736  0.54954672    -0.15500
C1147       C  0.78433780  0.50414605  0.52407287     0.03400
C1148       C  0.81121226  0.49567607  0.50261264    -0.10800
C1149       C  0.84189982  0.51169963  0.50760531    -0.00800
C1150       C  0.84642934  0.53528140  0.53272787    -0.06000
H1151       H  0.76827132  0.53364951  0.56607101     0.06500
H1152       H  0.86294691  0.50598207  0.49159233     0.09800
Br1153     Br  0.78029730  0.61121476  0.54481514    -0.05700
Br1154     Br  0.91183674  0.58687785  0.61849379    -0.02600
Br1155     Br  0.74137026  0.48334745  0.52121639     0.00200
Br1156     Br  0.89018849  0.55455615  0.53486405    -0.04200
C1157       C  0.88322809  0.66135293  0.22899431    -0.11600
C1158       C  0.90405839  0.63751499  0.24827938     0.03900
C1159       C  0.92921789  0.64805289  0.27020546    -0.12100
C1160       C  0.93592283  0.68134430  0.27473029     0.18800
C1161       C  0.91781499  0.70455886  0.25627125    -0.09200
C1162       C  0.89115192  0.69405525  0.23510533    -0.02100
H1163       H  0.94359541  0.62996114  0.28427554     0.05300
C1164       C  0.96167666  0.69122929  0.29942668     0.20700
H1165       H  0.87605853  0.71048793  0.22237573     0.10500
C1166       C  0.99544503  0.69155236  0.28993290    -0.15500
C1167       C  0.02048209  0.69769663  0.31371267     0.03400
C1168       C  0.01160870  0.70405106  0.34721367    -0.10800
C1169       C  0.97803951  0.70532456  0.35624238    -0.00800
C1170       C  0.95314552  0.69876847  0.33285401    -0.06000
H1171       H  0.00232526  0.68595909  0.26431076     0.06500
H1172       H  0.97121516  0.70951182  0.38217981     0.09800
Br1173     Br  0.92975887  0.75042352  0.26171493    -0.05700
Br1174     Br  0.90199094  0.58945884  0.24807962    -0.02600
Br1175     Br  0.06634085  0.69576932  0.29998962     0.00200
Br1176     Br  0.90847721  0.69822896  0.34938402    -0.04200
C1177       C  0.83517592  0.62530747  0.22927941    -0.11600
C1178       C  0.83216444  0.62953891  0.26628923     0.03900
C1179       C  0.81839640  0.60539952  0.28797456    -0.12100
C1180       C  0.81538361  0.57271118  0.27858070     0.18800
C1181       C  0.82027909  0.56556176  0.24496892    -0.09200
C1182       C  0.82854656  0.59108508  0.22199245    -0.02100
H1183       H  0.81405265  0.61066012  0.31432191     0.05300
C1184       C  0.81236701  0.54667609  0.30524801     0.20700
H1185       H  0.83358102  0.58069516  0.19934760     0.10500
C1186       C  0.78420968  0.52587917  0.30702816    -0.15500
C1187       C  0.78112803  0.50174745  0.33253383     0.03400
C1188       C  0.80659516  0.49815529  0.35697972    -0.10800
C1189       C  0.83436399  0.51926397  0.35511661    -0.00800
C1190       C  0.83741621  0.54314527  0.32994724    -0.06000
H1191       H  0.76460354  0.52838159  0.28847455     0.06500
H1192       H  0.85420161  0.51717378  0.37347323     0.09800
Br1193     Br  0.81968612  0.52030066  0.22981110    -0.05700
Br1194     Br  0.85464978  0.65736462  0.29865736    -0.02600
Br1195     Br  0.74252802  0.47358788  0.33143139     0.00200
Br1196     Br  0.87729758  0.56946694  0.33062122    -0.04200
C1197       C  0.88339157  0.62749508  0.18055006    -0.11600
C1198       C  0.92058855  0.62924305  0.18204376     0.03900
C1199       C  0.94087329  0.60132178  0.17716270    -0.12100
C1200       C  0.92796786  0.57145794  0.16683996     0.18800
C1201       C  0.89436076  0.57038320  0.15838263    -0.09200
C1202       C  0.87390374  0.59889668  0.16276283    -0.02100
H1203       H  0.96757780  0.60263781  0.18167130     0.05300
C1204       C  0.95021392  0.54184539  0.16721588     0.20700
H1205       H  0.84920765  0.59792900  0.15503387     0.10500
C1206       C  0.96302518  0.53114068  0.19816657    -0.15500
C1207       C  0.98690177  0.50584781  0.20020140     0.03400
C1208       C  0.99881823  0.49076419  0.17055266    -0.10800
C1209       C  0.98493371  0.50067773  0.13971205    -0.00800
C1210       C  0.96101059  0.52585275  0.13776615    -0.06000
H1211       H  0.95499275  0.54320157  0.22098457     0.06500
H1212       H  0.99335664  0.48934746  0.11663123     0.09800
Br1213     Br  0.87624324  0.52829043  0.14583568    -0.05700
Br1214     Br  0.95085208  0.66541811  0.19085163    -0.02600
Br1215     Br  0.00312952  0.49508761  0.24421199     0.00200
Br1216     Br  0.94559039  0.53783980  0.09390122    -0.04200
C1217       C  0.81049038  0.36066039  0.35255243    -0.11600
C1218       C  0.78641127  0.33563894  0.34695807     0.03900
C1219       C  0.78945327  0.31448483  0.31920179    -0.12100
C1220       C  0.81620156  0.31762297  0.29669345     0.18800
C1221       C  0.84008050  0.34264916  0.30220103    -0.09200
C1222       C  0.83702901  0.36379307  0.32972320    -0.02100
H1223       H  0.77141625  0.29477338  0.31572893     0.05300
C1224       C  0.82062993  0.29232331  0.27001828     0.20700
H1225       H  0.85581300  0.38278023  0.33337767     0.10500
C1226       C  0.80998836  0.29808227  0.23755281    -0.15500
C1227       C  0.81611759  0.27541540  0.21105599     0.03400
C1228       C  0.83236672  0.24339684  0.21656489    -0.10800
C1229       C  0.83806268  0.23814590  0.25187359    -0.00800
C1230       C  0.83536907  0.26220051  0.27697971    -0.06000
H1231       H  0.79864136  0.32193217  0.23255649     0.06500
H1232       H  0.84837417  0.21541109  0.26102348     0.09800
Br1233     Br  0.87837782  0.34826806  0.27415696    -0.05700
Br1234     Br  0.75051172  0.32715227  0.37755454    -0.02600
Br1235     Br  0.80189608  0.29699123  0.17073395     0.00200
Br1236     Br  0.85612973  0.25455861  0.31992753    -0.04200
C1237       C  0.00531414  0.16087335  0.34116609    -0.11600
C1238       C  0.97191621  0.15059062  0.34485098     0.03900
C1239       C  0.94885540  0.15649664  0.31894609    -0.12100
C1240       C  0.95871042  0.17169808  0.28869234     0.18800
C1241       C  0.99270542  0.18041727  0.28465240    -0.09200
C1242       C  0.01538030  0.17517065  0.31077851    -0.02100
H1243       H  0.92284856  0.15036477  0.32297802     0.05300
C1244       C  0.93283947  0.18205798  0.26360719     0.20700
H1245       H  0.04106292  0.18303676  0.30760965     0.10500
C1246       C  0.93059941  0.21499878  0.25520668    -0.15500
C1247       C  0.90661017  0.22696537  0.23267393     0.03400
C1248       C  0.88223777  0.20557585  0.21534847    -0.10800
C1249       C  0.88518137  0.17311213  0.22634473    -0.00800
C1250       C  0.90973481  0.16062781  0.24917567    -0.06000
H1251       H  0.94751927  0.23191944  0.26782478     0.06500
H1252       H  0.86995896  0.15719415  0.21325297     0.09800
Br1253     Br  0.00986126  0.20075134  0.24461225    -0.05700
Br1254     Br  0.95604403  0.13105962  0.38568725    -0.02600
Br1255     Br  0.91000841  0.27371024  0.23562694     0.00200
Br1256     Br  0.91488378  0.11408781  0.25807799    -0.04200
C1257       C  0.02008299  0.34993981  0.15123023    -0.11600
C1258       C  0.01505785  0.32492974  0.17572861     0.03900
C1259       C  0.99017462  0.30093462  0.17128724    -0.12100
C1260       C  0.97000160  0.30041892  0.14251235     0.18800
C1261       C  0.97621250  0.32404469  0.11709936    -0.09200
C1262       C  0.00114657  0.34826725  0.12147049    -0.02100
H1263       H  0.98541572  0.28347793  0.19141388     0.05300
C1264       C  0.93907688  0.27955499  0.14312392     0.20700
H1265       H  0.00458702  0.36682975  0.10211248     0.10500
C1266       C  0.90881869  0.29539531  0.14620230    -0.15500
C1267       C  0.88175781  0.28062506  0.16390365     0.03400
C1268       C  0.87833411  0.24367681  0.16771221    -0.10800
C1269       C  0.90947987  0.22939298  0.15762175    -0.00800
C1270       C  0.93935280  0.24594105  0.14968308    -0.06000
H1271       H  0.90956473  0.32185869  0.14081532     0.06500
H1272       H  0.91351661  0.20504945  0.16161872     0.09800
Br1273     Br  0.95014874  0.32516498  0.07672575    -0.05700
Br1274     Br  0.04071758  0.32179288  0.21630287    -0.02600
Br1275     Br  0.87019661  0.32072917  0.18965620     0.00200
Br1276     Br  0.98058537  0.22153016  0.15088536    -0.04200
C1277       C  0.89686800  0.22657637  0.67597488    -0.11600
C1278       C  0.93266657  0.22818868  0.66631332     0.03900
C1279       C  0.95526959  0.25061510  0.68150276    -0.12100
C1280       C  0.94578010  0.27247505  0.70638100     0.18800
C1281       C  0.91340379  0.26962807  0.71860621    -0.09200
C1282       C  0.89047093  0.24761856  0.70295644    -0.02100
H1283       H  0.98047699  0.25329951  0.67194562     0.05300
C1284       C  0.96697690  0.30241939  0.71298010     0.20700
H1285       H  0.86689814  0.24500215  0.71167635     0.10500
C1286       C  0.95358256  0.33409219  0.70599751    -0.15500
C1287       C  0.97351690  0.36251520  0.70611293     0.03400
C1288       C  0.00740570  0.36000337  0.71448902    -0.10800
C1289       C  0.02070414  0.32896359  0.72321380    -0.00800
C1290       C  0.00108574  0.30019860  0.72183120    -0.06000
H1291       H  0.92763679  0.33682101  0.69912785     0.06500
H1292       H  0.04696533  0.32683159  0.72936978     0.09800
Br1293     Br  0.90044965  0.29807333  0.75483176    -0.05700
Br1294     Br  0.96015647  0.20549112  0.63414472    -0.02600
Br1295     Br  0.95361809  0.40417502  0.69393314     0.00200
Br1296     Br  0.02287000  0.25875538  0.73073228    -0.04200
C1297       C  0.84600147  0.24312555  0.64001358    -0.11600
C1298       C  0.85878664  0.27771246  0.63700001     0.03900
C1299       C  0.84805496  0.30005769  0.61179549    -0.12100
C1300       C  0.82848324  0.29009860  0.58528834     0.18800
C1301       C  0.81569862  0.25790243  0.58644928    -0.09200
C1302       C  0.82333589  0.23627710  0.61374097    -0.02100
H1303       H  0.85757091  0.32527627  0.61037320     0.05300
C1304       C  0.82257702  0.31347299  0.55648544     0.20700
H1305       H  0.81509436  0.21201355  0.61225296     0.10500
C1306       C  0.83284404  0.30396423  0.52415292    -0.15500
C1307       C  0.82908375  0.32532294  0.49655313     0.03400
C1308       C  0.81452533  0.35681002  0.50079384    -0.10800
C1309       C  0.80429346  0.36648323  0.53282071    -0.00800
C1310       C  0.80880324  0.34566257  0.56062390    -0.06000
H1311       H  0.84433597  0.27991662  0.52044281     0.06500
H1312       H  0.79386622  0.39103239  0.53644778     0.09800
Br1313     Br  0.78408191  0.24546826  0.55292849    -0.05700
Br1314     Br  0.90083420  0.29789921  0.64777787    -0.02600
Br1315     Br  0.84354322  0.31028865  0.45339234     0.00200
Br1316     Br  0.79662949  0.36404824  0.60316723    -0.04200
C1317       C  0.00309014  0.17318896  0.48440521    -0.11600
C1318       C  0.97364377  0.19121666  0.47780594     0.03900
C1319       C  0.94892453  0.19403504  0.50256462    -0.12100
C1320       C  0.95367360  0.18088270  0.53494255     0.18800
C1321       C  0.98355656  0.16280568  0.54129785    -0.09200
C1322       C  0.00733018  0.15866968  0.51595689    -0.02100
H1323       H  0.92597849  0.20695689  0.49654395     0.05300
C1324       C  0.92776588  0.18660375  0.56160388     0.20700
H1325       H  0.02995801  0.14487350  0.52130831     0.10500
C1326       C  0.91750226  0.16069795  0.58185044    -0.15500
C1327       C  0.89974822  0.16559898  0.61240233     0.03400
C1328       C  0.88415121  0.19681284  0.62224150    -0.10800
C1329       C  0.89518653  0.22204884  0.59807215    -0.00800
C1330       C  0.91562922  0.21785418  0.56975719    -0.06000
H1331       H  0.92579348  0.13616769  0.57426649     0.06500
H1332       H  0.89181814  0.24756186  0.60132719     0.09800
Br1333     Br  0.99539349  0.14428331  0.58408893    -0.05700
Br1334     Br  0.96561608  0.21177741  0.43514845    -0.02600
Br1335     Br  0.90346614  0.12516979  0.63321195     0.00200
Br1336     Br  0.93068247  0.25749853  0.54723484    -0.04200
C1337       C  0.77952021  0.74588122  0.65913336    -0.11600
C1338       C  0.79300305  0.78045404  0.66063123     0.03900
C1339       C  0.77387170  0.80861179  0.67038296    -0.12100
C1340       C  0.73957155  0.80790882  0.67141138     0.18800
C1341       C  0.72442848  0.77735005  0.66785176    -0.09200
C1342       C  0.74353281  0.74846930  0.66359036    -0.02100
H1343       H  0.78504669  0.83310560  0.67214039     0.05300
C1344       C  0.71935974  0.83906384  0.66943103     0.20700
H1345       H  0.72599914  0.72971044  0.66034435     0.10500
C1346       C  0.70079976  0.84509170  0.64017121    -0.15500
C1347       C  0.67406541  0.86746452  0.63996746     0.03400
C1348       C  0.66497569  0.88396264  0.66989189    -0.10800
C1349       C  0.68671409  0.88148591  0.69756878    -0.00800
C1350       C  0.71452573  0.86029862  0.69696349    -0.06000
H1351       H  0.70574508  0.83054454  0.61791929     0.06500
H1352       H  0.68211105  0.89610947  0.71982382     0.09800
Br1353     Br  0.67638608  0.77428443  0.66333611    -0.05700
Br1354     Br  0.82943685  0.80245716  0.63766107    -0.02600
Br1355     Br  0.65055596  0.87240414  0.59828622     0.00200
Br1356     Br  0.74617860  0.86357451  0.73277326    -0.04200
C1357       C  0.81308066  0.73386894  0.61172929    -0.11600
C1358       C  0.79033547  0.75426625  0.59027604     0.03900
C1359       C  0.80168017  0.77507350  0.56478270    -0.12100
C1360       C  0.83499284  0.78014886  0.55905777     0.18800
C1361       C  0.85799039  0.76221184  0.57813960    -0.09200
C1362       C  0.84708056  0.73916301  0.60324523    -0.02100
H1363       H  0.78406019  0.78935860  0.54989896     0.05300
C1364       C  0.84393518  0.80813932  0.53637406     0.20700
H1365       H  0.86564598  0.72688737  0.61640711     0.10500
C1366       C  0.83696155  0.84064531  0.54702094    -0.15500
C1367       C  0.83853219  0.86744408  0.52469961     0.03400
C1368       C  0.84753892  0.86210519  0.49110326    -0.10800
C1369       C  0.85591365  0.82988252  0.48067317    -0.00800
C1370       C  0.85373671  0.80290058  0.50292217    -0.06000
H1371       H  0.82894693  0.84500733  0.57254259     0.06500
H1372       H  0.86275081  0.82549605  0.45479882     0.09800
Br1373     Br  0.90400324  0.77353251  0.57270077    -0.05700
Br1374     Br  0.74210684  0.75824533  0.58978214    -0.02600
Br1375     Br  0.82801396  0.91094109  0.54105552     0.00200
Br1376     Br  0.86180683  0.75914245  0.48607078    -0.04200
C1377       C  0.76974928  0.69157200  0.61966016    -0.11600
C1378       C  0.76999325  0.68727453  0.58262775     0.03900
C1379       C  0.74112164  0.68021332  0.56390811    -0.12100
C1380       C  0.71026461  0.67631586  0.57845734     0.18800
C1381       C  0.70871454  0.67617814  0.61316823    -0.09200
C1382       C  0.73764523  0.68256423  0.63252295    -0.02100
H1383       H  0.74226448  0.67906800  0.53675652     0.05300
C1384       C  0.68065847  0.67224786  0.55607224     0.20700
H1385       H  0.73384680  0.67986288  0.65850430     0.10500
C1386       C  0.67859237  0.64400204  0.53570925    -0.15500
C1387       C  0.65481557  0.64161667  0.50998500     0.03400
C1388       C  0.63259974  0.66830398  0.50363505    -0.10800
C1389       C  0.63406566  0.69610468  0.52480523    -0.00800
C1390       C  0.65753358  0.69816318  0.55082696    -0.06000
H1391       H  0.69650094  0.62412989  0.53902626     0.06500
H1392       H  0.61717652  0.71673122  0.52077885     0.09800
Br1393     Br  0.66689606  0.66700668  0.63453191    -0.05700
Br1394     Br  0.80510730  0.69268512  0.54979669    -0.02600
Br1395     Br  0.65631654  0.60219840  0.48311072     0.00200
Br1396     Br  0.65786003  0.73786129  0.57706630    -0.04200
C1397       C  0.38719351  0.73670266  0.67499755    -0.11600
C1398       C  0.38856565  0.77345826  0.67433519     0.03900
C1399       C  0.41796066  0.79122631  0.66932742    -0.12100
C1400       C  0.44826059  0.77707846  0.67647295     0.18800
C1401       C  0.44900736  0.74377247  0.68544586    -0.09200
C1402       C  0.41910089  0.72418787  0.68319707    -0.02100
H1403       H  0.41719618  0.81791086  0.66534217     0.05300
C1404       C  0.47699465  0.79968912  0.68122996     0.20700
H1405       H  0.41928361  0.69954107  0.69134896     0.10500
C1406       C  0.47710726  0.82061657  0.70927793    -0.15500
C1407       C  0.50036011  0.84633761  0.71221368     0.03400
C1408       C  0.52426147  0.85131535  0.68666172    -0.10800
C1409       C  0.52518613  0.82901455  0.65958259    -0.00800
C1410       C  0.50178423  0.80345801  0.65667155    -0.06000
H1411       H  0.45787549  0.81789859  0.72818280     0.06500
H1412       H  0.54341382  0.83228167  0.63980396     0.09800
Br1413     Br  0.49148801  0.72703694  0.70088615    -0.05700
Br1414     Br  0.36206638  0.80487853  0.69875024    -0.02600
Br1415     Br  0.49533004  0.87571430  0.74966918     0.00200
Br1416     Br  0.50327170  0.77580074  0.61770331    -0.04200
C1417       C  0.38197249  0.69291639  0.62549020    -0.11600
C1418       C  0.41823370  0.68503716  0.62028930     0.03900
C1419       C  0.43201952  0.67953814  0.58806570    -0.12100
C1420       C  0.41398832  0.68251334  0.55887524     0.18800
C1421       C  0.38007539  0.68843469  0.56187496    -0.09200
C1422       C  0.36553476  0.69097382  0.59404566    -0.02100
H1423       H  0.45838527  0.67406290  0.58443709     0.05300
C1424       C  0.43265950  0.67802653  0.52674686     0.20700
H1425       H  0.34047765  0.69741130  0.59435517     0.10500
C1426       C  0.44842266  0.64729410  0.52176689    -0.15500
C1427       C  0.47560091  0.64383366  0.49995286     0.03400
C1428       C  0.48755095  0.67160944  0.48175500    -0.10800
C1429       C  0.46984645  0.70170161  0.48458254    -0.00800
C1430       C  0.44287997  0.70516520  0.50679157    -0.06000
H1431       H  0.44124207  0.62631288  0.53716061     0.06500
H1432       H  0.47778261  0.72320464  0.47034136     0.09800
Br1433     Br  0.35304009  0.69635112  0.52284235    -0.05700
Br1434     Br  0.45751816  0.67490962  0.64698859    -0.02600
Br1435     Br  0.49671018  0.60106175  0.49941145     0.00200
Br1436     Br  0.42300656  0.74827874  0.51026767    -0.04200
C1437       C  0.34681398  0.74423841  0.63144736    -0.11600
C1438       C  0.36659123  0.75750096  0.60330468     0.03900
C1439       C  0.35352767  0.78041613  0.58078361    -0.12100
C1440       C  0.32810698  0.80123639  0.59077427     0.18800
C1441       C  0.31749684  0.79866857  0.62405466    -0.09200
C1442       C  0.32585678  0.76977749  0.64277285    -0.02100
H1443       H  0.36647139  0.78556896  0.55747197     0.05300
C1444       C  0.31792509  0.82771992  0.56712614     0.20700
H1445       H  0.31850487  0.76776557  0.66771413     0.10500
C1446       C  0.29095185  0.82219606  0.54520983    -0.15500
C1447       C  0.28605612  0.84215180  0.51669022     0.03400
C1448       C  0.30903642  0.86758341  0.50926315    -0.10800
C1449       C  0.33554824  0.87326857  0.53169691    -0.00800
C1450       C  0.33988232  0.85400386  0.56043372    -0.06000
H1451       H  0.27483978  0.80104109  0.54899637     0.06500
H1452       H  0.35379926  0.89228613  0.52635043     0.09800
Br1453     Br  0.29770354  0.83631249  0.64566300    -0.05700
Br1454     Br  0.41445028  0.75735164  0.59804582    -0.02600
Br1455     Br  0.25018677  0.83096434  0.48703997     0.00200
Br1456     Br  0.37794660  0.86256950  0.58841405    -0.04200
C1457       C  0.50939190  0.67053923  0.34319575    -0.11600
C1458       C  0.47768983  0.65550557  0.34507903     0.03900
C1459       C  0.45511791  0.65898784  0.31847660    -0.12100
C1460       C  0.46382334  0.67671031  0.28941146     0.18800
C1461       C  0.49607666  0.69052496  0.28702295    -0.09200
C1462       C  0.51844727  0.68761749  0.31390017    -0.02100
H1463       H  0.43004672  0.64928464  0.32118501     0.05300
C1464       C  0.43703217  0.68632850  0.26539888     0.20700
H1465       H  0.54283531  0.69910381  0.31210758     0.10500
C1466       C  0.42573277  0.71827032  0.26670230    -0.15500
C1467       C  0.39587575  0.72785916  0.25115293     0.03400
C1468       C  0.37821556  0.70709034  0.22629500    -0.10800
C1469       C  0.39176657  0.67538948  0.22594646    -0.00800
C1470       C  0.41906144  0.66409424  0.24605448    -0.06000
H1471       H  0.43916333  0.73500851  0.28324890     0.06500
H1472       H  0.37927934  0.65900850  0.21090039     0.09800
Br1473     Br  0.51004675  0.71459688  0.24792656    -0.05700
Br1474     Br  0.46275021  0.63316502  0.38490027    -0.02600
Br1475     Br  0.38554590  0.76847268  0.27337974     0.00200
Br1476     Br  0.43083323  0.61836597  0.24955938    -0.04200
C1477       C  0.51151128  0.85837205  0.16732109    -0.11600
C1478       C  0.51748357  0.82627241  0.17983713     0.03900
C1479       C  0.49242959  0.80194034  0.17754801    -0.12100
C1480       C  0.46131505  0.80905749  0.16263780     0.18800
C1481       C  0.45600238  0.84138381  0.14957476    -0.09200
C1482       C  0.48113900  0.86523451  0.15156967    -0.02100
H1483       H  0.49691562  0.77761476  0.18822949     0.05300
C1484       C  0.43333032  0.78484698  0.16667281     0.20700
H1485       H  0.47643609  0.88993586  0.14181935     0.10500
C1486       C  0.42081481  0.77966542  0.19869600    -0.15500
C1487       C  0.38647255  0.77396224  0.20063949     0.03400
C1488       C  0.37209193  0.74795583  0.18063227    -0.10800
C1489       C  0.38520899  0.75246358  0.14729147    -0.00800
C1490       C  0.41392560  0.77230774  0.14017156    -0.06000
H1491       H  0.43300834  0.79224090  0.21935886     0.06500
H1492       H  0.37557036  0.73990066  0.12602798     0.09800
Br1493     Br  0.41453135  0.85671445  0.13137822    -0.05700
Br1494     Br  0.55971782  0.81459762  0.19918882    -0.02600
Br1495     Br  0.37136704  0.81939850  0.19656279     0.00200
Br1496     Br  0.42649970  0.78081271  0.09516548    -0.04200
C1497       C  0.32355823  0.74117513  0.22275226    -0.11600
C1498       C  0.31549411  0.77712102  0.22046250     0.03900
C1499       C  0.31288298  0.79749804  0.24905304    -0.12100
C1500       C  0.31248746  0.78523923  0.28124379     0.18800
C1501       C  0.31266157  0.75046625  0.28479207    -0.09200
C1502       C  0.31871752  0.72991786  0.25616264    -0.02100
H1503       H  0.30916461  0.82409844  0.24662489     0.05300
C1504       C  0.31275488  0.80980251  0.30966888     0.20700
H1505       H  0.31915817  0.70441445  0.25924457     0.10500
C1506       C  0.28787964  0.80850552  0.33454426    -0.15500
C1507       C  0.28665946  0.83204657  0.36046734     0.03400
C1508       C  0.31068664  0.85768037  0.36195537    -0.10800
C1509       C  0.33513209  0.85923192  0.33729592    -0.00800
C1510       C  0.33588534  0.83672302  0.31095572    -0.06000
H1511       H  0.26865500  0.78967684  0.33337076     0.06500
H1512       H  0.35308068  0.87936305  0.33762091     0.09800
Br1513     Br  0.30727238  0.73073822  0.32830864    -0.05700
Br1514     Br  0.29169847  0.80547296  0.18838502    -0.02600
Br1515     Br  0.25222982  0.82724575  0.39343598     0.00200
Br1516     Br  0.36829478  0.84796202  0.27750107    -0.04200
C1517       C  0.83881120  0.86889969  0.34844630    -0.11600
C1518       C  0.84560724  0.87647570  0.31458226     0.03900
C1519       C  0.83842004  0.85313721  0.28926718    -0.12100
C1520       C  0.82429934  0.82211147  0.29719646     0.18800
C1521       C  0.81905823  0.81438211  0.33160069    -0.09200
C1522       C  0.82574004  0.83781320  0.35641455    -0.02100
H1523       H  0.84327840  0.85945518  0.26332761     0.05300
C1524       C  0.81649455  0.79741907  0.27013653     0.20700
H1525       H  0.82072585  0.83164266  0.38238849     0.10500
C1526       C  0.84249537  0.78304093  0.25144965    -0.15500
C1527       C  0.84061145  0.74878390  0.24390361     0.03400
C1528       C  0.80972740  0.73372395  0.23490252    -0.10800
C1529       C  0.78297951  0.74981541  0.25410225    -0.00800
C1530       C  0.78584227  0.78089712  0.26972218    -0.06000
H1531       H  0.86701767  0.79429814  0.25341741     0.06500
H1532       H  0.75809444  0.73951061  0.25426999     0.09800
Br1533     Br  0.80396752  0.77209887  0.34774840    -0.05700
Br1534     Br  0.86275166  0.91906075  0.30182616    -0.02600
Br1535     Br  0.85526609  0.73633367  0.28857290     0.00200
Br1536     Br  0.74664445  0.80129067  0.28808346    -0.04200
C1537       C  0.78005318  0.67896217  0.23503784    -0.11600
C1538       C  0.75080647  0.65917120  0.23128798     0.03900
C1539       C  0.72372842  0.66242087  0.25425772    -0.12100
C1540       C  0.72914409  0.67327307  0.28688730     0.18800
C1541       C  0.76192951  0.68033172  0.29567523    -0.09200
C1542       C  0.78626939  0.68283539  0.27039213    -0.02100
H1543       H  0.69929816  0.65205635  0.24837017     0.05300
C1544       C  0.70174617  0.67211666  0.31191738     0.20700
H1545       H  0.80836303  0.69386038  0.27871990     0.10500
C1546       C  0.69730504  0.64364002  0.33169380    -0.15500
C1547       C  0.67158989  0.64180429  0.35555810     0.03400
C1548       C  0.64976472  0.66908672  0.36019415    -0.10800
C1549       C  0.65452715  0.69755489  0.34021719    -0.00800
C1550       C  0.67987879  0.69903980  0.31610045    -0.06000
H1551       H  0.71401403  0.62273182  0.32854855     0.06500
H1552       H  0.63796383  0.71864001  0.34281066     0.09800
Br1553     Br  0.77407599  0.68867809  0.34132736    -0.05700
Br1554     Br  0.75322934  0.61378184  0.24552506    -0.02600
Br1555     Br  0.66876623  0.60180940  0.38158696     0.00200
Br1556     Br  0.68326704  0.73807082  0.28885413    -0.04200
C1557       C  0.76757200  0.72993819  0.19175370    -0.11600
C1558       C  0.73060334  0.72913354  0.19604309     0.03900
C1559       C  0.70991926  0.75769986  0.19390955    -0.12100
C1560       C  0.72210400  0.78925661  0.18915310     0.18800
C1561       C  0.75642574  0.79272868  0.18759161    -0.09200
C1562       C  0.77724365  0.76438120  0.18650353    -0.02100
H1563       H  0.68291223  0.75601527  0.19605059     0.05300
C1564       C  0.69822824  0.81786082  0.18551536     0.20700
H1565       H  0.80299900  0.76958527  0.18718283     0.10500
C1566       C  0.69629035  0.84252092  0.21027693    -0.15500
C1567       C  0.67339245  0.86892747  0.20764648     0.03400
C1568       C  0.65186223  0.87131534  0.17949768    -0.10800
C1569       C  0.65398217  0.84677810  0.15489214    -0.00800
C1570       C  0.67606697  0.82012751  0.15805041    -0.06000
H1571       H  0.71235747  0.84102942  0.23203571     0.06500
H1572       H  0.63716232  0.84742084  0.13361725     0.09800
Br1573     Br  0.77568332  0.83626082  0.19178116    -0.05700
Br1574     Br  0.69769994  0.69467206  0.19484584    -0.02600
Br1575     Br  0.67340108  0.90094957  0.24314940     0.00200
Br1576     Br  0.67282522  0.78696416  0.12452823    -0.04200
C1577       C  0.38746934  0.18427790  0.22862109    -0.11600
C1578       C  0.38079462  0.20889738  0.25363349     0.03900
C1579       C  0.39538027  0.20734383  0.28608828    -0.12100
C1580       C  0.42760579  0.19511264  0.28927873     0.18800
C1581       C  0.44078222  0.17813026  0.26248300    -0.09200
C1582       C  0.41997815  0.17066323  0.23563223    -0.02100
H1583       H  0.38688777  0.22332025  0.30607641     0.05300
C1584       C  0.44822000  0.20058530  0.31932357     0.20700
H1585       H  0.42931540  0.14916187  0.22455951     0.10500
C1586       C  0.45070653  0.17481442  0.34273431    -0.15500
C1587       C  0.47667251  0.17416321  0.36613337     0.03400
C1588       C  0.50071665  0.19988417  0.36636462    -0.10800
C1589       C  0.49665085  0.22684109  0.34441857    -0.00800
C1590       C  0.47089424  0.22722413  0.32084653    -0.06000
H1591       H  0.43349716  0.15410995  0.34147573     0.06500
H1592       H  0.51444855  0.24707328  0.34455643     0.09800
Br1593     Br  0.48461738  0.15837430  0.26435763    -0.05700
Br1594     Br  0.39147472  0.25450932  0.24559797    -0.02600
Br1595     Br  0.47751400  0.13732897  0.39668835     0.00200
Br1596     Br  0.46960021  0.26342365  0.28973807    -0.04200
C1597       C  0.35043397  0.13670372  0.23843368    -0.11600
C1598       C  0.37393495  0.12746811  0.26546159     0.03900
C1599       C  0.36327600  0.11211356  0.29573539    -0.12100
C1600       C  0.33909221  0.08721290  0.29341773     0.18800
C1601       C  0.32210178  0.08570397  0.26308395    -0.09200
C1602       C  0.32492968  0.11202104  0.23939775    -0.02100
H1603       H  0.37992535  0.11161986  0.31717610     0.05300
C1604       C  0.33487134  0.06001485  0.31923110     0.20700
H1605       H  0.30911283  0.11020760  0.21982294     0.10500
C1606       C  0.30869135  0.06177173  0.34278126    -0.15500
C1607       C  0.30078230  0.03460395  0.36389811     0.03400
C1608       C  0.31920353  0.00472282  0.36193151    -0.10800
C1609       C  0.34529942  0.00309550  0.33849267    -0.00800
C1610       C  0.35277623  0.02979685  0.31706936    -0.06000
H1611       H  0.29390123  0.08421405  0.34434481     0.06500
H1612       H  0.35981355  0.98049893  0.33643655     0.09800
Br1613     Br  0.29791255  0.04596312  0.25252135    -0.05700
Br1614     Br  0.41137067  0.09841470  0.25591830    -0.02600
Br1615     Br  0.26566807  0.04009718  0.39603623     0.00200
Br1616     Br  0.38621483  0.02212674  0.28375992    -0.04200
C1617       C  0.38374875  0.13756538  0.18257331    -0.11600
C1618       C  0.41858904  0.14059625  0.16938831     0.03900
C1619       C  0.43760707  0.11222681  0.16052637    -0.12100
C1620       C  0.42621616  0.08017613  0.16570416     0.18800
C1621       C  0.39373406  0.07596632  0.17653114    -0.09200
C1622       C  0.37367898  0.10365395  0.18275889    -0.02100
H1623       H  0.46326502  0.11462413  0.15208543     0.05300
C1624       C  0.45037817  0.05231260  0.16550421     0.20700
H1625       H  0.34950917  0.09743755  0.18878503     0.10500
C1626       C  0.47157657  0.04903372  0.19316395    -0.15500
C1627       C  0.49544420  0.02386547  0.19474287     0.03400
C1628       C  0.49892948  0.00130936  0.16779758    -0.10800
C1629       C  0.47762776  0.00464061  0.13994432    -0.00800
C1630       C  0.45316442  0.02963003  0.13884439    -0.06000
H1631       H  0.46966451  0.06645212  0.21370808     0.06500
H1632       H  0.47976711  0.98756403  0.11914686     0.09800
Br1633     Br  0.37572629  0.03256660  0.18477071    -0.05700
Br1634     Br  0.45321082  0.17497502  0.17210486    -0.02600
Br1635     Br  0.52356976  0.02355005  0.23382640     0.00200
Br1636     Br  0.42411608  0.03161074  0.10075331    -0.04200
C1637       C  0.49622196  0.99071483  0.68882690    -0.11600
C1638       C  0.46443427  0.98291108  0.67608133     0.03900
C1639       C  0.43984205  0.00763888  0.67418001    -0.12100
C1640       C  0.44701897  0.04058473  0.68329132     0.18800
C1641       C  0.47903965  0.04801672  0.69613107    -0.09200
C1642       C  0.50261824  0.02285498  0.70009398    -0.02100
H1643       H  0.41564773  0.00156897  0.66371474     0.05300
C1644       C  0.42229559  0.06676314  0.67471851     0.20700
H1645       H  0.52727084  0.02910245  0.70932662     0.10500
C1646       C  0.39401626  0.07231671  0.69483051    -0.15500
C1647       C  0.36647820  0.08978497  0.68144378     0.03400
C1648       C  0.37208365  0.11622820  0.65812039    -0.10800
C1649       C  0.39601534  0.10299819  0.63415209    -0.00800
C1650       C  0.42146861  0.08032592  0.64249758    -0.06000
H1651       H  0.39059062  0.05700366  0.71699018     0.06500
H1652       H  0.39892078  0.11335387  0.61002502     0.09800
Br1653     Br  0.49468854  0.09200124  0.70448913    -0.05700
Br1654     Br  0.45393654  0.93917106  0.66042754    -0.02600
Br1655     Br  0.34918216  0.04764023  0.66427665     0.00200
Br1656     Br  0.45600474  0.07156118  0.61034356    -0.04200
C1657       C  0.50277408  0.19880721  0.50274045    -0.11600
C1658       C  0.48593607  0.16900599  0.51147951     0.03900
C1659       C  0.46160219  0.16908546  0.53656167    -0.12100
C1660       C  0.45245532  0.19826900  0.55311025     0.18800
C1661       C  0.46832794  0.22811823  0.54407269    -0.09200
C1662       C  0.49314233  0.22824684  0.51912422    -0.02100
H1663       H  0.44989238  0.14586795  0.54351069     0.05300
C1664       C  0.42809731  0.19556697  0.58119303     0.20700
H1665       H  0.50537559  0.25143404  0.51301183     0.10500
C1666       C  0.43823987  0.17977659  0.61018641    -0.15500
C1667       C  0.41538779  0.16803939  0.63412897     0.03400
C1668       C  0.37890516  0.17138986  0.62972093    -0.10800
C1669       C  0.37095650  0.19135829  0.60206571    -0.00800
C1670       C  0.39415561  0.20220649  0.57738405    -0.06000
H1671       H  0.46474079  0.17511468  0.61336102     0.06500
H1672       H  0.34599828  0.19456840  0.59722222     0.09800
Br1673     Br  0.45811227  0.26890227  0.56608008    -0.05700
Br1674     Br  0.49362664  0.12685185  0.49042482    -0.02600
Br1675     Br  0.44150279  0.14892688  0.67030457     0.00200
Br1676     Br  0.37784244  0.22014481  0.53567432    -0.04200
C1677       C  0.30701626  0.99824017  0.50385856    -0.11600
C1678       C  0.32742190  0.99614901  0.53260208     0.03900
C1679       C  0.32402032  0.01965421  0.55797270    -0.12100
C1680       C  0.30065489  0.04537985  0.55512730     0.18800
C1681       C  0.27928485  0.04652616  0.52725019    -0.09200
C1682       C  0.28234193  0.02289407  0.50207163    -0.02100
H1683       H  0.34099372  0.01901813  0.57913628     0.05300
C1684       C  0.30565634  0.07481417  0.57614600     0.20700
H1685       H  0.26604334  0.02446782  0.48043870     0.10500
C1686       C  0.32424734  0.09990415  0.56240571    -0.15500
C1687       C  0.34073408  0.12300971  0.58248771     0.03400
C1688       C  0.33120176  0.12807031  0.61794229    -0.10800
C1689       C  0.30937678  0.10320970  0.62928094    -0.00800
C1690       C  0.29902955  0.07542594  0.61010366    -0.06000
H1691       H  0.32974448  0.09786802  0.53579395     0.06500
H1692       H  0.30297156  0.10421753  0.65463510     0.09800
Br1693     Br  0.24683659  0.08083642  0.52159046    -0.05700
Br1694     Br  0.36006881  0.96199999  0.53907932    -0.02600
Br1695     Br  0.37806016  0.13504153  0.55440732     0.00200
Br1696     Br  0.27436820  0.03905562  0.62972695    -0.04200
C1697       C  0.82300001  0.12488009  0.21756851    -0.11600
C1698       C  0.82936574  0.08973090  0.20845183     0.03900
C1699       C  0.83835882  0.06581103  0.23305246    -0.12100
C1700       C  0.84073685  0.07349734  0.26679659     0.18800
C1701       C  0.83990691  0.10649968  0.27577111    -0.09200
C1702       C  0.83445624  0.13059747  0.25127418    -0.02100
H1703       H  0.84066539  0.03975728  0.22665650     0.05300
C1704       C  0.84320588  0.04714428  0.29275551     0.20700
H1705       H  0.83717960  0.15537231  0.25962041     0.10500
C1706       C  0.87205895  0.04480392  0.31256718    -0.15500
C1707       C  0.87302628  0.02449313  0.34101619     0.03400
C1708       C  0.84510065  0.00462649  0.34936028    -0.10800
C1709       C  0.81658962  0.00628023  0.32879418    -0.00800
C1710       C  0.81536449  0.02748392  0.30099256    -0.06000
H1711       H  0.89337935  0.06033336  0.30693242     0.06500
H1712       H  0.79491485  0.99123642  0.33449420     0.09800
Br1713     Br  0.84817132  0.11991128  0.32134641    -0.05700
Br1714     Br  0.81600144  0.06231877  0.17078470    -0.02600
Br1715     Br  0.91203306  0.02802405  0.36882118     0.00200
Br1716     Br  0.77429701  0.03040758  0.27642562    -0.04200
C1717       C  0.78087018  0.16675740  0.23844009    -0.11600
C1718       C  0.78287315  0.19516119  0.26029779     0.03900
C1719       C  0.75465285  0.20426050  0.28010326    -0.12100
C1720       C  0.73250786  0.17992754  0.29265801     0.18800
C1721       C  0.73981789  0.14717866  0.28307802    -0.09200
C1722       C  0.76339981  0.14105169  0.25752040    -0.02100
H1723       H  0.75397859  0.22843934  0.29159348     0.05300
C1724       C  0.70393061  0.18794563  0.31629071     0.20700
H1725       H  0.76771493  0.11530626  0.25303314     0.10500
C1726       C  0.67217676  0.17437436  0.30953166    -0.15500
C1727       C  0.64524944  0.17802718  0.33186320     0.03400
C1728       C  0.64877450  0.19706216  0.36127021    -0.10800
C1729       C  0.67972780  0.21226476  0.36734222    -0.00800
C1730       C  0.70724042  0.20744975  0.34577711    -0.06000
H1731       H  0.66846504  0.15994222  0.28697860     0.06500
H1732       H  0.68311297  0.22648354  0.39009551     0.09800
Br1733     Br  0.72121117  0.10968986  0.30619452    -0.05700
Br1734     Br  0.80684430  0.18956546  0.30298594    -0.02600
Br1735     Br  0.60394722  0.15646901  0.32093086     0.00200
Br1736     Br  0.74893865  0.22550973  0.36070267    -0.04200
C1737       C  0.76299728  0.13769755  0.18884128    -0.11600
C1738       C  0.72839803  0.15030216  0.19143692     0.03900
C1739       C  0.69987963  0.13132924  0.18196826    -0.12100
C1740       C  0.70182662  0.09751748  0.17678755     0.18800
C1741       C  0.73202509  0.08273520  0.18352899    -0.09200
C1742       C  0.75953200  0.10239374  0.19131037    -0.02100
H1743       H  0.67504346  0.14179631  0.18330994     0.05300
C1744       C  0.67169827  0.07633716  0.17380836     0.20700
H1745       H  0.77283476  0.08876911  0.20931905     0.10500
C1746       C  0.66547091  0.06062473  0.14324476    -0.15500
C1747       C  0.64508393  0.03244611  0.14151186     0.03400
C1748       C  0.63078866  0.01900721  0.17122064    -0.10800
C1749       C  0.63483218  0.03671832  0.20125688    -0.00800
C1750       C  0.65481338  0.06515699  0.20265250    -0.06000
H1751       H  0.67803662  0.06927329  0.12084638     0.06500
H1752       H  0.62326177  0.02790678  0.22412779     0.09800
Br1753     Br  0.73486478  0.03534723  0.19112977    -0.05700
Br1754     Br  0.71020697  0.18656612  0.21684347    -0.02600
Br1755     Br  0.63946926  0.01372115  0.09761811     0.00200
Br1756     Br  0.66057173  0.08618466  0.24518483    -0.04200
C1757       C  0.84949748  0.00592982  0.49644914    -0.11600
C1758       C  0.87362597  0.00722754  0.52239511     0.03900
C1759       C  0.87173605  0.03198746  0.54733109    -0.12100
C1760       C  0.84611236  0.05590758  0.54713070     0.18800
C1761       C  0.82212649  0.05448927  0.52131193    -0.09200
C1762       C  0.82392078  0.02988623  0.49656028    -0.02100
H1763       H  0.89007130  0.03227067  0.56729494     0.05300
C1764       C  0.84347102  0.08112284  0.57471705     0.20700
H1765       H  0.80492099  0.02945276  0.47723225     0.10500
C1766       C  0.84909586  0.11438266  0.56828524    -0.15500
C1767       C  0.83969697  0.13999074  0.59090482     0.03400
C1768       C  0.82748850  0.13323115  0.62570570    -0.10800
C1769       C  0.82799787  0.09724443  0.63118418    -0.00800
C1770       C  0.83177415  0.07285984  0.60622098    -0.06000
H1771       H  0.85815094  0.12035010  0.54335869     0.06500
H1772       H  0.81838322  0.08656373  0.65411179     0.09800
Br1773     Br  0.78522072  0.08460486  0.51964354    -0.05700
Br1774     Br  0.90815788  0.97451374  0.52664543    -0.02600
Br1775     Br  0.84004912  0.17945655  0.56230812     0.00200
Br1776     Br  0.81445952  0.02897692  0.61422981    -0.04200
C1777       C  0.63523332  0.01595665  0.66953768    -0.11600
C1778       C  0.62580081  0.04932823  0.66494788     0.03900
C1779       C  0.65051815  0.07379314  0.66094650    -0.12100
C1780       C  0.68446094  0.06501647  0.65988051     0.18800
C1781       C  0.69337882  0.03116067  0.66312681    -0.09200
C1782       C  0.66889515  0.00731295  0.66843894    -0.02100
H1783       H  0.64327059  0.09954998  0.65826344     0.05300
C1784       C  0.71062606  0.09088682  0.65646069     0.20700
H1785       H  0.67618850  0.98152850  0.67118060     0.10500
C1786       C  0.72018641  0.10953446  0.68433212    -0.15500
C1787       C  0.75433614  0.11908724  0.68839786     0.03400
C1788       C  0.77468930  0.12689022  0.66008781    -0.10800
C1789       C  0.76127008  0.10927446  0.63066849    -0.00800
C1790       C  0.73184094  0.09105502  0.62921937    -0.06000
H1791       H  0.70339381  0.10872755  0.70564147     0.06500
H1792       H  0.77331539  0.10937411  0.60676751     0.09800
Br1793     Br  0.73829277  0.01489995  0.66042050    -0.05700
Br1794     Br  0.57985587  0.06236289  0.66380448    -0.02600
Br1795     Br  0.76211881  0.07838114  0.71197100     0.00200
Br1796     Br  0.72116148  0.06781107  0.58855047    -0.04200
C1797       C  0.64412652  0.19987321  0.50675261    -0.11600
C1798       C  0.66849658  0.22483716  0.51096134     0.03900
C1799       C  0.69064262  0.22312284  0.53802466    -0.12100
C1800       C  0.68921005  0.19673871  0.56094173     0.18800
C1801       C  0.66407863  0.17260365  0.55752067    -0.09200
C1802       C  0.64193079  0.17425146  0.53054549    -0.02100
H1803       H  0.71014358  0.24156253  0.54026330     0.05300
C1804       C  0.71747089  0.19148992  0.58417346     0.20700
H1805       H  0.62301731  0.15520764  0.52802598     0.10500
C1806       C  0.71350114  0.19352456  0.61829573    -0.15500
C1807       C  0.73957056  0.18540052  0.64111782     0.03400
C1808       C  0.77383619  0.17603573  0.63067193    -0.10800
C1809       C  0.77251593  0.17114807  0.59486606    -0.00800
C1810       C  0.74712323  0.17920921  0.57247926    -0.06000
H1811       H  0.68888380  0.20094276  0.62693875     0.06500
H1812       H  0.78611287  0.15317263  0.58245932     0.09800
Br1813     Br  0.66008066  0.13589209  0.58786233    -0.05700
Br1814     Br  0.67516655  0.25992819  0.47903227    -0.02600
Br1815     Br  0.71723599  0.18582290  0.68300473     0.00200
Br1816     Br  0.75220627  0.16738495  0.52584458    -0.04200
C1817       C  0.37522344  0.66888056  0.74414415    -0.11600
C1818       C  0.38401350  0.70062445  0.75995128     0.03900
C1819       C  0.39721347  0.70279836  0.79291240    -0.12100
C1820       C  0.41293223  0.67660998  0.80826167     0.18800
C1821       C  0.40861931  0.64558754  0.79426763    -0.09200
C1822       C  0.39050448  0.64231235  0.76440418    -0.02100
H1823       H  0.39944369  0.72632650  0.80609111     0.05300
C1824       C  0.43896037  0.68345716  0.83400226     0.20700
H1825       H  0.39221094  0.61717249  0.75548622     0.10500
C1826       C  0.43929355  0.66543366  0.86419255    -0.15500
C1827       C  0.46644384  0.66760721  0.88621416     0.03400
C1828       C  0.49306965  0.68925851  0.87876417    -0.10800
C1829       C  0.49132105  0.70936693  0.85036780    -0.00800
C1830       C  0.46508151  0.70648586  0.82783332    -0.06000
H1831       H  0.41896271  0.64868352  0.87003573     0.06500
H1832       H  0.51156286  0.72631484  0.84466311     0.09800
Br1833     Br  0.43248565  0.60741183  0.81056948    -0.05700
Br1834     Br  0.39272698  0.74503776  0.74640678    -0.02600
Br1835     Br  0.46563439  0.64093098  0.92609233     0.00200
Br1836     Br  0.46919845  0.73352436  0.78844179    -0.04200
C1837       C  0.39379092  0.64467615  0.68820723    -0.11600
C1838       C  0.42499582  0.63629356  0.70591302     0.03900
C1839       C  0.44360430  0.60779618  0.69894607    -0.12100
C1840       C  0.44050462  0.59141032  0.66887948     0.18800
C1841       C  0.41744618  0.60439997  0.64583522    -0.09200
C1842       C  0.39421042  0.62934645  0.65597569    -0.02100
H1843       H  0.46374708  0.60045483  0.71559945     0.05300
C1844       C  0.46232276  0.56157038  0.66344705     0.20700
H1845       H  0.37548984  0.63477577  0.63878804     0.10500
C1846       C  0.45811210  0.53430264  0.68507435    -0.15500
C1847       C  0.47998412  0.50714691  0.68487658     0.03400
C1848       C  0.50771323  0.50690907  0.66321769    -0.10800
C1849       C  0.51193562  0.53388764  0.64113543    -0.00800
C1850       C  0.49016443  0.56139616  0.64168880    -0.06000
H1851       H  0.43815961  0.53464056  0.70316863     0.06500
H1852       H  0.53298776  0.53420559  0.62423117     0.09800
Br1853     Br  0.41668084  0.58846764  0.60088766    -0.05700
Br1854     Br  0.45337797  0.66400166  0.73348925    -0.02600
Br1855     Br  0.46984112  0.47024870  0.71364334     0.00200
Br1856     Br  0.50205019  0.59934968  0.61519834    -0.04200
C1857       C  0.34437411  0.61877360  0.71968225    -0.11600
C1858       C  0.33103154  0.60963698  0.75325137     0.03900
C1859       C  0.32912409  0.57703342  0.76524871    -0.12100
C1860       C  0.34415063  0.55097038  0.74944939     0.18800
C1861       C  0.35796384  0.55653257  0.71832195    -0.09200
C1862       C  0.35733721  0.58872074  0.70424409    -0.02100
H1863       H  0.31831452  0.57149999  0.78966490     0.05300
C1864       C  0.34604539  0.51954894  0.76867498     0.20700
H1865       H  0.36487552  0.58734665  0.67917340     0.10500
C1866       C  0.31573819  0.50512785  0.77857696    -0.15500
C1867       C  0.31323089  0.48720609  0.80852199     0.03400
C1868       C  0.34171504  0.48314076  0.82919004    -0.10800
C1869       C  0.37278247  0.49404232  0.81698286    -0.00800
C1870       C  0.37509945  0.51205962  0.78706932    -0.06000
H1871       H  0.29319410  0.51071122  0.76461152     0.06500
H1872       H  0.39525765  0.49005321  0.83156260     0.09800
Br1873     Br  0.37165148  0.51948886  0.69153496    -0.05700
Br1874     Br  0.32476039  0.63345038  0.79456264    -0.02600
Br1875     Br  0.26981836  0.47014113  0.81952150     0.00200
Br1876     Br  0.41796610  0.52895600  0.77450375    -0.04200
C1877       C  0.81109032  0.62228152  0.71873971    -0.11600
C1878       C  0.80561910  0.58682226  0.71166289     0.03900
C1879       C  0.80809544  0.56258459  0.73663406    -0.12100
C1880       C  0.81687096  0.57052521  0.76894887     0.18800
C1881       C  0.82541446  0.60279502  0.77664563    -0.09200
C1882       C  0.82296644  0.62731133  0.75201740    -0.02100
H1883       H  0.80370964  0.53671685  0.73078299     0.05300
C1884       C  0.81759545  0.54457367  0.79453209     0.20700
H1885       H  0.82788982  0.65219071  0.76005625     0.10500
C1886       C  0.84729449  0.52730827  0.80011331    -0.15500
C1887       C  0.84975653  0.50429840  0.82614580     0.03400
C1888       C  0.82175251  0.49834235  0.84706334    -0.10800
C1889       C  0.79174811  0.51539142  0.84052273    -0.00800
C1890       C  0.78957394  0.53839901  0.81456919    -0.06000
H1891       H  0.86885781  0.53230070  0.78449662     0.06500
H1892       H  0.76988024  0.51128287  0.85592853     0.09800
Br1893     Br  0.83784412  0.61422837  0.82177624    -0.05700
Br1894     Br  0.80185314  0.56398051  0.66916445    -0.02600
Br1895     Br  0.89232184  0.48283228  0.83107929     0.00200
Br1896     Br  0.74826815  0.56162216  0.80795222    -0.04200
C1897       C  0.63532810  0.68759585  0.84943116    -0.11600
C1898       C  0.65300210  0.71520184  0.83626499     0.03900
C1899       C  0.67624222  0.71078085  0.81038259    -0.12100
C1900       C  0.68208112  0.67955375  0.79600255     0.18800
C1901       C  0.66325145  0.65229078  0.80798588    -0.09200
C1902       C  0.64050551  0.65647332  0.83441053    -0.02100
H1903       H  0.69063874  0.73194748  0.80202070     0.05300
C1904       C  0.71032444  0.67580940  0.77152345     0.20700
H1905       H  0.62693673  0.63500356  0.84343255     0.10500
C1906       C  0.73495241  0.65224258  0.77744102    -0.15500
C1907       C  0.76647647  0.65789734  0.76369538     0.03400
C1908       C  0.77150043  0.67181425  0.73025752    -0.10800
C1909       C  0.74420625  0.69284162  0.72323585    -0.00800
C1910       C  0.71569673  0.69735739  0.74421593    -0.06000
H1911       H  0.73292606  0.63683816  0.79969535     0.06500
H1912       H  0.74483841  0.70468793  0.70080365     0.09800
Br1913     Br  0.66677348  0.60866178  0.78918928    -0.05700
Br1914     Br  0.64823341  0.75970305  0.85279791    -0.02600
Br1915     Br  0.78425760  0.68008655  0.80227303     0.00200
Br1916     Br  0.67996049  0.72517765  0.72970125    -0.04200
C1917       C  0.64890411  0.49372145  0.66143513    -0.11600
C1918       C  0.64456494  0.52431974  0.64482984     0.03900
C1919       C  0.66864355  0.54930545  0.64786876    -0.12100
C1920       C  0.69852901  0.54399707  0.66557842     0.18800
C1921       C  0.70346574  0.51275056  0.68106083    -0.09200
C1922       C  0.67851742  0.48829540  0.67945614    -0.02100
H1923       H  0.66350835  0.57339278  0.63694657     0.05300
C1924       C  0.72215888  0.57241300  0.67041525     0.20700
H1925       H  0.68233819  0.46483778  0.69221201     0.10500
C1926       C  0.72871916  0.58366147  0.70284787    -0.15500
C1927       C  0.73785165  0.61694628  0.70647237     0.03400
C1928       C  0.76166866  0.63205949  0.68364184    -0.10800
C1929       C  0.75624309  0.61924282  0.65081835    -0.00800
C1930       C  0.73411065  0.59238795  0.64386070    -0.06000
H1931       H  0.71687156  0.57113568  0.72378989     0.06500
H1932       H  0.76658158  0.63041932  0.62993475     0.09800
Br1933     Br  0.74385348  0.50172786  0.70430186    -0.05700
Br1934     Br  0.60521695  0.53432763  0.61945276    -0.02600
Br1935     Br  0.69337401  0.63504627  0.70696930     0.00200
Br1936     Br  0.72303040  0.58220836  0.59843551    -0.04200
C1937       C  0.80555237  0.35622996  0.86664042    -0.11600
C1938       C  0.78586013  0.35554410  0.83761459     0.03900
C1939       C  0.78503898  0.32669587  0.81843159    -0.12100
C1940       C  0.80464047  0.29891112  0.82719810     0.18800
C1941       C  0.82179112  0.29892851  0.85809678    -0.09200
C1942       C  0.82193617  0.32751918  0.87748496    -0.02100
H1943       H  0.77156622  0.32700511  0.79486852     0.05300
C1944       C  0.81249960  0.27496322  0.80030891     0.20700
H1945       H  0.83635890  0.32789466  0.90049193     0.10500
C1946       C  0.82383971  0.28772250  0.77020100    -0.15500
C1947       C  0.82468640  0.26878857  0.74088742     0.03400
C1948       C  0.81714670  0.23317612  0.74070556    -0.10800
C1949       C  0.81288619  0.22127501  0.77422702    -0.00800
C1950       C  0.80675017  0.24114200  0.80234488    -0.06000
H1951       H  0.82895102  0.31413673  0.76883358     0.06500
H1952       H  0.80974786  0.19576623  0.77783717     0.09800
Br1953     Br  0.84829927  0.26286388  0.87446722    -0.05700
Br1954     Br  0.76404145  0.39452149  0.82059999    -0.02600
Br1955     Br  0.82981149  0.29895557  0.70403895     0.00200
Br1956     Br  0.78355742  0.22175727  0.83977316    -0.04200
C1957       C  0.77638373  0.24135913  0.69216153    -0.11600
C1958       C  0.76598275  0.24795418  0.65842984     0.03900
C1959       C  0.73215959  0.25803970  0.65101827    -0.12100
C1960       C  0.71302019  0.27638805  0.67447701     0.18800
C1961       C  0.72866245  0.28144150  0.70543652    -0.09200
C1962       C  0.75916641  0.26591459  0.71271421    -0.02100
H1963       H  0.72309837  0.25638256  0.62548394     0.05300
C1964       C  0.68207921  0.29635843  0.66560084     0.20700
H1965       H  0.76764516  0.27425569  0.73642261     0.10500
C1966       C  0.65512251  0.29649434  0.68835675    -0.15500
C1967       C  0.63120758  0.32214981  0.68849461     0.03400
C1968       C  0.63277564  0.34796915  0.66450419    -0.10800
C1969       C  0.65673917  0.34529361  0.63904278    -0.00800
C1970       C  0.68100860  0.32007551  0.63915942    -0.06000
H1971       H  0.65411684  0.27780277  0.70790341     0.06500
H1972       H  0.65751197  0.36389799  0.61941388     0.09800
Br1973     Br  0.71238539  0.31231190  0.73858249    -0.05700
Br1974     Br  0.77817844  0.29176340  0.64312673    -0.02600
Br1975     Br  0.59710879  0.32025144  0.72204383     0.00200
Br1976     Br  0.71139727  0.32123137  0.60219483    -0.04200
C1977       C  0.76980375  0.19216933  0.73285589    -0.11600
C1978       C  0.76440012  0.15839789  0.74390120     0.03900
C1979       C  0.73134913  0.14701015  0.75230944    -0.12100
C1980       C  0.70746866  0.16884761  0.76597457     0.18800
C1981       C  0.71707899  0.20203843  0.76759982    -0.09200
C1982       C  0.74690152  0.21220188  0.75263116    -0.02100
H1983       H  0.72617471  0.12061629  0.75485767     0.05300
C1984       C  0.68076103  0.15641948  0.78909225     0.20700
H1985       H  0.75390658  0.23525654  0.76289014     0.10500
C1986       C  0.68969396  0.13634773  0.81677643    -0.15500
C1987       C  0.66866995  0.13313136  0.84469359     0.03400
C1988       C  0.63813805  0.15016135  0.84531148    -0.10800
C1989       C  0.62773173  0.16745475  0.81650230    -0.00800
C1990       C  0.64831717  0.16991755  0.78824322    -0.06000
H1991       H  0.71388309  0.12467115  0.81794268     0.06500
H1992       H  0.60372151  0.17977406  0.81626579     0.09800
Br1993     Br  0.69541720  0.23376743  0.79656646    -0.05700
Br1994     Br  0.77295444  0.14619704  0.79085353    -0.02600
Br1995     Br  0.68413647  0.10823222  0.88268451     0.00200
Br1996     Br  0.63194086  0.19359136  0.74975436    -0.04200
C1997       C  0.49284673  0.36713890  0.66877719    -0.11600
C1998       C  0.48690145  0.34621685  0.69665432     0.03900
C1999       C  0.46220196  0.32179822  0.69490026    -0.12100
C2000       C  0.44206939  0.31814432  0.66637731     0.18800
C2001       C  0.44572928  0.34124731  0.63992260    -0.09200
C2002       C  0.47138461  0.36484128  0.64103811    -0.02100
H2003       H  0.45947201  0.30478745  0.71571098     0.05300
C2004       C  0.42014542  0.28835106  0.66416755     0.20700
H2005       H  0.47467471  0.38144211  0.61990116     0.10500
C2006       C  0.38528566  0.29061594  0.66181104    -0.15500
C2007       C  0.36765160  0.26161192  0.65269383     0.03400
C2008       C  0.37555405  0.23061362  0.66888059    -0.10800
C2009       C  0.41174128  0.22880925  0.66798627    -0.00800
C2010       C  0.43349607  0.25614350  0.66400580    -0.06000
H2011       H  0.37387864  0.31475381  0.65828483     0.06500
H2012       H  0.42490876  0.20829004  0.67729515     0.09800
Br2013     Br  0.41750629  0.34208091  0.60120386    -0.05700
Br2014     Br  0.51224617  0.34790743  0.73744459    -0.02600
Br2015     Br  0.37687199  0.26748568  0.60597133     0.00200
Br2016     Br  0.48076116  0.24807295  0.66291108    -0.04200
C2017       C  0.33668223  0.23237724  0.72401227    -0.11600
C2018       C  0.33935857  0.23044770  0.76104068     0.03900
C2019       C  0.32867960  0.25612809  0.78181683    -0.12100
C2020       C  0.32711714  0.28822724  0.77007324     0.18800
C2021       C  0.33025814  0.29341783  0.73587492    -0.09200
C2022       C  0.33115378  0.26569713  0.71438647    -0.02100
H2023       H  0.32722125  0.25251373  0.80874341     0.05300
C2024       C  0.32865270  0.31486488  0.79515437     0.20700
H2025       H  0.32709791  0.27060236  0.68975511     0.10500
C2026       C  0.35473830  0.31324994  0.81858355    -0.15500
C2027       C  0.35530429  0.33381840  0.84637300     0.03400
C2028       C  0.33027803  0.35802405  0.85024796    -0.10800
C2029       C  0.30430221  0.36007689  0.82652415    -0.00800
C2030       C  0.30304462  0.33839408  0.79927969    -0.06000
H2031       H  0.37414229  0.29467182  0.81597066     0.06500
H2032       H  0.28495546  0.37869083  0.82907173     0.09800
Br2033     Br  0.33720310  0.33730470  0.71818892    -0.05700
Br2034     Br  0.36234466  0.20079285  0.79180820    -0.02600
Br2035     Br  0.38941627  0.32536621  0.87920273     0.00200
Br2036     Br  0.26528372  0.34104745  0.76969318    -0.04200
C2037       C  0.50772345  0.15842434  0.83982110    -0.11600
C2038       C  0.47471209  0.14689680  0.84253524     0.03900
C2039       C  0.45303927  0.14996278  0.81529051    -0.12100
C2040       C  0.46416870  0.16283762  0.78452565     0.18800
C2041       C  0.49787370  0.17237037  0.78122419    -0.09200
C2042       C  0.51916751  0.17077618  0.80900754    -0.02100
H2043       H  0.42707325  0.14324130  0.81847843     0.05300
C2044       C  0.43897980  0.17131026  0.75853710     0.20700
H2045       H  0.54474557  0.17902747  0.80649081     0.10500
C2046       C  0.43385274  0.20429024  0.75225453    -0.15500
C2047       C  0.40612423  0.21540492  0.73470285     0.03400
C2048       C  0.38185716  0.19260360  0.71848781    -0.10800
C2049       C  0.38875437  0.15873821  0.72508271    -0.00800
C2050       C  0.41704590  0.14821185  0.74472832    -0.06000
H2051       H  0.45054379  0.22204105  0.76395203     0.06500
H2052       H  0.37212949  0.14063077  0.71592070     0.09800
Br2053     Br  0.51577172  0.18757561  0.73929799    -0.05700
Br2054     Br  0.45743415  0.12886072  0.88354970    -0.02600
Br2055     Br  0.40558597  0.26338967  0.73906479     0.00200
Br2056     Br  0.42780515  0.10252330  0.75406038    -0.04200
C2057       C  0.49920435  0.36224726  0.17300399    -0.11600
C2058       C  0.47474695  0.35566489  0.19778507     0.03900
C2059       C  0.44861780  0.33339039  0.19101562    -0.12100
C2060       C  0.44657585  0.31662941  0.16023597     0.18800
C2061       C  0.47120995  0.32272797  0.13583447    -0.09200
C2062       C  0.49668167  0.34558078  0.14213616    -0.02100
H2063       H  0.43012691  0.32848351  0.21021253     0.05300
C2064       C  0.42037553  0.29083618  0.15530828     0.20700
H2065       H  0.51534495  0.34950112  0.12290606     0.10500
C2066       C  0.39832894  0.29263544  0.12855082    -0.15500
C2067       C  0.37974197  0.26446004  0.11988491     0.03400
C2068       C  0.36944164  0.23987763  0.14500353    -0.10800
C2069       C  0.39324472  0.23886971  0.17099735    -0.00800
C2070       C  0.42017855  0.26175675  0.17427215    -0.06000
H2071       H  0.40110576  0.31275579  0.11067428     0.06500
H2072       H  0.39530962  0.21657282  0.18349086     0.09800
Br2073     Br  0.47330039  0.29843414  0.09459929    -0.05700
Br2074     Br  0.47516982  0.37579376  0.24132357    -0.02600
Br2075     Br  0.39252425  0.25502396  0.07435641     0.00200
Br2076     Br  0.45930507  0.25149937  0.20063195    -0.04200
C2077       C  0.36550840  0.18721292  0.10988828    -0.11600
C2078       C  0.35804991  0.17573883  0.07497896     0.03900
C2079       C  0.38253690  0.17328419  0.04953296    -0.12100
C2080       C  0.41593388  0.17649724  0.05615779     0.18800
C2081       C  0.42545812  0.18435310  0.08829066    -0.09200
C2082       C  0.40110905  0.18861822  0.11340423    -0.02100
H2083       H  0.37616100  0.16680594  0.02388758     0.05300
C2084       C  0.44070608  0.17158526  0.02916420     0.20700
H2085       H  0.41112358  0.19792237  0.13486148     0.10500
C2086       C  0.44578434  0.19671213  0.00542041    -0.15500
C2087       C  0.47100311  0.19388886  0.98130061     0.03400
C2088       C  0.49178872  0.16542647  0.98093026    -0.10800
C2089       C  0.48538949  0.13970335  0.00378479    -0.00800
C2090       C  0.46021642  0.14262183  0.02773726    -0.06000
H2091       H  0.43040318  0.21882627  0.00602368     0.06500
H2092       H  0.50065870  0.11751694  0.00370402     0.09800
Br2093     Br  0.47107311  0.19781167  0.09567251    -0.05700
Br2094     Br  0.32157618  0.15211926  0.05341599    -0.02600
Br2095     Br  0.47454683  0.22916149  0.94903166     0.00200
Br2096     Br  0.45393194  0.10656932  0.05832646    -0.04200
C2097       C  0.33200540  0.37107984  0.99646430    -0.11600
C2098       C  0.35985432  0.35298259  0.00865165     0.03900
C2099       C  0.35556882  0.32925975  0.03394733    -0.12100
C2100       C  0.32409511  0.32263253  0.04772587     0.18800
C2101       C  0.29667975  0.34195313  0.03711546    -0.09200
C2102       C  0.30080126  0.36575118  0.01178471    -0.02100
H2103       H  0.37693248  0.31491797  0.04188750     0.05300
C2104       C  0.31998147  0.29235068  0.06872918     0.20700
H2105       H  0.27912453  0.37958516  0.00346363     0.10500
C2106       C  0.31368957  0.29347335  0.10315941    -0.15500
C2107       C  0.30247127  0.26380524  0.11873944     0.03400
C2108       C  0.31813724  0.23285139  0.11179123    -0.10800
C2109       C  0.31926130  0.23259066  0.07536093    -0.00800
C2110       C  0.31969173  0.26085273  0.05423388    -0.06000
H2111       H  0.30908932  0.31731930  0.11464264     0.06500
H2112       H  0.31500287  0.21179847  0.06098962     0.09800
Br2113     Br  0.25263698  0.33607156  0.05475937    -0.05700
Br2114     Br  0.40430768  0.35716395  0.99106633    -0.02600
Br2115     Br  0.25611555  0.26620089  0.10520885     0.00200
Br2116     Br  0.32225689  0.25480161  0.00653091    -0.04200
C2117       C  0.65832327  0.70051051  0.99123536    -0.11600
C2118       C  0.67589189  0.67251442  0.00333256     0.03900
C2119       C  0.69981673  0.67652295  0.02836325    -0.12100
C2120       C  0.70715962  0.70786428  0.04165417     0.18800
C2121       C  0.69110111  0.73591179  0.02825435    -0.09200
C2122       C  0.66684393  0.73203966  0.00351411    -0.02100
H2123       H  0.71300984  0.65490009  0.03748121     0.05300
C2124       C  0.73300497  0.70942151  0.06815452     0.20700
H2125       H  0.65418173  0.75398134  0.99426388     0.10500
C2126       C  0.76502413  0.70214418  0.05855030    -0.15500
C2127       C  0.78462330  0.68105665  0.07868768     0.03400
C2128       C  0.77924400  0.67824058  0.11580587    -0.10800
C2129       C  0.75039882  0.69593311  0.12467687    -0.00800
C2130       C  0.72518412  0.70548631  0.10178835    -0.06000
H2131       H  0.77075379  0.70627568  0.03222048     0.06500
H2132       H  0.74490951  0.69628796  0.14967622     0.09800
Br2133     Br  0.70105425  0.78010134  0.04161105    -0.05700
Br2134     Br  0.66961721  0.62815927  0.98689827    -0.02600
Br2135     Br  0.80525987  0.65429465  0.04376267     0.00200
Br2136     Br  0.67909477  0.70439359  0.11460728    -0.04200
C2137       C  0.83971942  0.50497801  0.99187764    -0.11600
C2138       C  0.84855018  0.53807449  0.98552732     0.03900
C2139       C  0.84692032  0.56129447  0.01156193    -0.12100
C2140       C  0.83768957  0.55166138  0.04428582     0.18800
C2141       C  0.83001125  0.51784491  0.05021098    -0.09200
C2142       C  0.83131424  0.49509187  0.02420326    -0.02100
H2143       H  0.85098392  0.58720584  0.00569215     0.05300
C2144       C  0.82976368  0.57758434  0.06966047     0.20700
H2145       H  0.82407888  0.46956677  0.02890591     0.10500
C2146       C  0.79641893  0.58196397  0.07737831    -0.15500
C2147       C  0.78587756  0.60763338  0.09834598     0.03400
C2148       C  0.80989527  0.62806547  0.11731870    -0.10800
C2149       C  0.84166994  0.62729438  0.10313740    -0.00800
C2150       C  0.85228077  0.60216941  0.08043357    -0.06000
H2151       H  0.77800885  0.56633732  0.06522136     0.06500
H2152       H  0.85447243  0.64975521  0.10506053     0.09800
Br2153     Br  0.81412013  0.50039280  0.09173597    -0.05700
Br2154     Br  0.86012224  0.55290568  0.94134814    -0.02600
Br2155     Br  0.73852346  0.61442973  0.09193306     0.00200
Br2156     Br  0.89431000  0.60585016  0.05848911    -0.04200
C2157       C  0.77104301  0.62849778  0.16378917    -0.11600
C2158       C  0.77648794  0.59281059  0.17162611     0.03900
C2159       C  0.75185935  0.57124180  0.18481024    -0.12100
C2160       C  0.71846519  0.57855218  0.18248773     0.18800
C2161       C  0.71004293  0.61023076  0.17199927    -0.09200
C2162       C  0.73516982  0.63369647  0.16374177    -0.02100
H2163       H  0.75772702  0.54626605  0.19349509     0.05300
C2164       C  0.69393100  0.55068641  0.18461491     0.20700
H2165       H  0.72307425  0.65252676  0.15063730     0.10500
C2166       C  0.67380684  0.54634034  0.21308662    -0.15500
C2167       C  0.65178290  0.51913943  0.21577999     0.03400
C2168       C  0.64970159  0.49545612  0.18955426    -0.10800
C2169       C  0.67025853  0.50001817  0.16138189    -0.00800
C2170       C  0.69203136  0.52697778  0.15877464    -0.06000
H2171       H  0.67523483  0.56418770  0.23328420     0.06500
H2172       H  0.66925505  0.48257052  0.14081248     0.09800
Br2173     Br  0.66389871  0.62064701  0.16346727    -0.05700
Br2174     Br  0.80178037  0.55840215  0.15000769    -0.02600
Br2175     Br  0.62451340  0.51696326  0.25523601     0.00200
Br2176     Br  0.71820923  0.53032013  0.11870149    -0.04200
C2177       C  0.80142982  0.22474611  0.10584400    -0.11600
C2178       C  0.78307610  0.22946218  0.07403728     0.03900
C2179       C  0.79522064  0.24930809  0.04769186    -0.12100
C2180       C  0.81857961  0.27365088  0.05370411     0.18800
C2181       C  0.83198015  0.27559755  0.08587572    -0.09200
C2182       C  0.82456759  0.25079956  0.11021599    -0.02100
H2183       H  0.78219166  0.25019843  0.02382793     0.05300
C2184       C  0.81966270  0.30264925  0.03065557     0.20700
H2185       H  0.83278171  0.25431888  0.13447680     0.10500
C2186       C  0.79279332  0.32499509  0.03113836    -0.15500
C2187       C  0.79387686  0.35490644  0.01360478     0.03400
C2188       C  0.82205589  0.36259127  0.99385052    -0.10800
C2189       C  0.84868386  0.33980751  0.99269943    -0.00800
C2190       C  0.84759831  0.31003490  0.01072521    -0.06000
H2191       H  0.77079783  0.31949349  0.04560498     0.06500
H2192       H  0.87010600  0.34461465  0.97686728     0.09800
Br2193     Br  0.85209363  0.31692064  0.09826427    -0.05700
Br2194     Br  0.73611213  0.22495334  0.06353859    -0.02600
Br2195     Br  0.75639354  0.38422008  0.01919293     0.00200
Br2196     Br  0.88382842  0.27963316  0.00541405    -0.04200
C2197       C  0.76760706  0.23431451  0.15539638    -0.11600
C2198       C  0.74515065  0.25537372  0.13511358     0.03900
C2199       C  0.71455846  0.26609129  0.14729988    -0.12100
C2200       C  0.71175613  0.27261000  0.18093933     0.18800
C2201       C  0.73550128  0.25900141  0.20264724    -0.09200
C2202       C  0.76015158  0.23642408  0.18997178    -0.02100
H2203       H  0.69671005  0.27771202  0.13040789     0.05300
C2204       C  0.68661718  0.29775946  0.19087068     0.20700
H2205       H  0.77447068  0.22200814  0.20669352     0.10500
C2206       C  0.65258020  0.29025856  0.18674718    -0.15500
C2207       C  0.62849851  0.31546636  0.18736818     0.03400
C2208       C  0.63849322  0.34843737  0.19279917    -0.10800
C2209       C  0.67187159  0.35572109  0.19877139    -0.00800
C2210       C  0.69597168  0.33100428  0.19720443    -0.06000
H2211       H  0.64501747  0.26509729  0.18102622     0.06500
H2212       H  0.67949136  0.38125396  0.20256276     0.09800
Br2213     Br  0.73233851  0.27162031  0.24860547    -0.05700
Br2214     Br  0.75638294  0.29233925  0.10604883    -0.02600
Br2215     Br  0.58272510  0.30430158  0.17890369     0.00200
Br2216     Br  0.74093359  0.34616245  0.19960854    -0.04200
C2217       C  0.62932368  0.15395944  0.00136092    -0.11600
C2218       C  0.64425227  0.12513842  0.01520375     0.03900
C2219       C  0.66276291  0.12703649  0.04518892    -0.12100
C2220       C  0.66791135  0.15730948  0.06215005     0.18800
C2221       C  0.65147206  0.18589283  0.04879027    -0.09200
C2222       C  0.63268691  0.18369608  0.01919356    -0.02100
H2223       H  0.67460607  0.10468376  0.05454923     0.05300
C2224       C  0.69540026  0.15902026  0.08837996     0.20700
H2225       H  0.62087951  0.20600179  0.00967695     0.10500
C2226       C  0.72648466  0.14558502  0.08084331    -0.15500
C2227       C  0.75641512  0.15960783  0.09357198     0.03400
C2228       C  0.75783008  0.18033989  0.12376073    -0.10800
C2229       C  0.72369295  0.18697563  0.13412449    -0.00800
C2230       C  0.69394159  0.17767883  0.11754512    -0.06000
H2231       H  0.72755095  0.12941561  0.05921604     0.06500
H2232       H  0.71825446  0.20184504  0.15512560     0.09800
Br2233     Br  0.65377683  0.23009960  0.06660612    -0.05700
Br2234     Br  0.64275182  0.08267531  0.99360360    -0.02600
Br2235     Br  0.78347264  0.16009642  0.05412353     0.00200
Br2236     Br  0.65174942  0.18915336  0.13765253    -0.04200
C2237       C  0.38006205  0.67948700  0.12497179    -0.11600
C2238       C  0.38098491  0.68423557  0.08800767     0.03900
C2239       C  0.41026561  0.69424550  0.07145509    -0.12100
C2240       C  0.44037180  0.69775002  0.08794912     0.18800
C2241       C  0.43976246  0.69821541  0.12281649    -0.09200
C2242       C  0.40966255  0.69170803  0.13991998    -0.02100
H2243       H  0.41079388  0.69616775  0.04431171     0.05300
C2244       C  0.47112678  0.70141471  0.06713474     0.20700
H2245       H  0.40902581  0.69798330  0.16595084     0.10500
C2246       C  0.47274545  0.72760278  0.04396616    -0.15500
C2247       C  0.49653546  0.72843332  0.01845612     0.03400
C2248       C  0.51948717  0.70202500  0.01504643    -0.10800
C2249       C  0.51877292  0.67624422  0.03888513    -0.00800
C2250       C  0.49484765  0.67568919  0.06458140    -0.06000
H2251       H  0.45379749  0.74648548  0.04396677     0.06500
H2252       H  0.53597279  0.65562103  0.03668900     0.09800
Br2253     Br  0.47856365  0.71071284  0.14793109    -0.05700
Br2254     Br  0.35236196  0.66935611  0.05150828    -0.02600
Br2255     Br  0.49296346  0.76463339  0.98715229     0.00200
Br2256     Br  0.49293369  0.63704540  0.09247569    -0.04200
C2257       C  0.38330314  0.62520944  0.16444147    -0.11600
C2258       C  0.38145453  0.58810717  0.16110230     0.03900
C2259       C  0.40847879  0.56652977  0.16671285    -0.12100
C2260       C  0.44022535  0.57782013  0.17161743     0.18800
C2261       C  0.44533419  0.61135473  0.17327182    -0.09200
C2262       C  0.41798868  0.63294232  0.17234462    -0.02100
H2263       H  0.40574704  0.53975648  0.16498088     0.05300
C2264       C  0.46752149  0.55368647  0.17468279     0.20700
H2265       H  0.42713447  0.65556553  0.18125694     0.10500
C2266       C  0.49085743  0.55091729  0.14867710    -0.15500
C2267       C  0.51517799  0.52606815  0.14942645     0.03400
C2268       C  0.51521095  0.50288457  0.17599591    -0.10800
C2269       C  0.49242846  0.50648129  0.20225501    -0.00800
C2270       C  0.46910244  0.53170815  0.20202583    -0.06000
H2271       H  0.49000706  0.56801987  0.12772528     0.06500
H2272       H  0.49246689  0.48932746  0.22321694     0.09800
Br2273     Br  0.48921915  0.62851453  0.18321791    -0.05700
Br2274     Br  0.34797491  0.55759946  0.14469094    -0.02600
Br2275     Br  0.54844492  0.52654637  0.11484202     0.00200
Br2276     Br  0.44120049  0.53465497  0.24053421    -0.04200
C2277       C  0.34831616  0.62818936  0.11560100    -0.11600
C2278       C  0.31937864  0.61037652  0.10323197     0.03900
C2279       C  0.32003527  0.59036321  0.07424702    -0.12100
C2280       C  0.34944906  0.58066777  0.05891865     0.18800
C2281       C  0.37906534  0.59366231  0.07125015    -0.09200
C2282       C  0.37825528  0.61648557  0.09752459    -0.02100
H2283       H  0.29716067  0.57914180  0.06506261     0.05300
C2284       C  0.34843804  0.55499088  0.03216047     0.20700
H2285       H  0.40287542  0.62497747  0.10469083     0.10500
C2286       C  0.36263536  0.56163192  0.00057673    -0.15500
C2287       C  0.36147939  0.53798853  0.97485301     0.03400
C2288       C  0.34477875  0.50775601  0.98018590    -0.10800
C2289       C  0.33032133  0.50123992  0.01135431    -0.00800
C2290       C  0.33240811  0.52411108  0.03737129    -0.06000
H2291       H  0.37451747  0.58532053  0.99587242     0.06500
H2292       H  0.31794788  0.47770874  0.01575066     0.09800
Br2293     Br  0.42196204  0.58019355  0.05459912    -0.05700
Br2294     Br  0.28006359  0.59863827  0.12511897    -0.02600
Br2295     Br  0.38170900  0.54840267  0.93257875     0.00200
Br2296     Br  0.31394410  0.51038744  0.07954493    -0.04200
loop_ 
_geom_bond_atom_site_label_1 
_geom_bond_atom_site_label_2 
_geom_bond_distance 
_geom_bond_site_symmetry_2 
_ccdc_geom_bond_type 
C1          C279   2.006       .  S
C1         C2237   1.652       .  S
C1         C2257   1.735       .  S
C1         C2277   1.677       .  S
C2          C278   1.954       .  S
C2         C2177   1.637       .  S
C2         C2197   1.634       .  S
C2         C2228   1.691       .  S
C3          C282   1.964       .  S
C3         C2128   1.673       .  S
C3         C2148   1.606       .  S
C3         C2157   1.702       .  S
C4          C277   2.006       .  S
C4         C2068   1.647       .  S
C4         C2077   1.694       .  S
C4         C2108   1.709       .  S
O5           V13   1.896       .  S
O5           C15   1.265       .  A
O6           V13   1.899       .  S
O6           C16   1.266       .  A
O7           V13   1.894       .  S
O7           C17   1.263       .  A
O8           V13   1.892       .  S
O8           C18   1.261       .  A
O9           V14   1.874       .  S
O9           C18   1.261       .  A
O10          V14   1.890       .  S
O10          C17   1.260       .  A
O11          V14   1.919       .  S
O11          C16   1.268       .  A
O12          V14   1.916       .  S
O12          C15   1.268       .  A
V13          V14   2.086       .  T
C15        C2057   1.495       .  S
C16        C2168   1.500       .  S
C17        C2208   1.456       .  S
C18        C2268   1.463       .  S
C19         C280   1.938       .  S
C19        C2008   1.722       .  S
C19        C2017   1.644       .  S
C19        C2048   1.632       .  S
C20         C281   1.972       .  S
C20        C1948   1.651       .  S
C20        C1957   1.709       .  S
C20        C1977   1.717       .  S
C21         C376   1.959       .  S
C21        C1877   1.639       .  S
C21        C1908   1.690       .  S
C21        C1928   1.666       .  S
C22         C283   1.962       .  S
C22        C1817   1.695       .  S
C22        C1837   1.678       .  S
C22        C1857   1.691       .  S
O23          V31   1.901       .  S
O23          C33   1.264       .  A
O24          V31   1.897       .  S
O24          C34   1.264       .  A
O25          V31   1.900       .  S
O25          C35   1.263       .  A
O26          V31   1.887       .  S
O26          C36   1.262       .  A
O27          V32   1.891       .  S
O27          C36   1.262       .  A
O28          V32   1.895       .  S
O28          C35   1.263       .  A
O29          V32   1.901       .  S
O29          C34   1.265       .  A
O30          V32   1.905       .  S
O30          C33   1.267       .  A
V31          V32   2.084       .  T
C33        C2097   1.493       .  S
C34        C1868   1.487       .  S
C35        C2288   1.468       .  S
C36        C2028   1.468       .  S
O37          V45   1.915       .  S
O37          C47   1.269       .  A
O38          V45   1.907       .  S
O38          C48   1.267       .  A
O39          V45   1.894       .  S
O39          C49   1.262       .  A
O40          V45   1.890       .  S
O40          C50   1.261       .  A
O41          V46   1.890       .  S
O41          C50   1.264       .  A
O42          V46   1.890       .  S
O42          C49   1.263       .  A
O43          V46   1.897       .  S
O43          C48   1.263       .  A
O44          V46   1.900       .  S
O44          C47   1.263       .  A
V45          V46   2.084       .  T
C47        C1897   1.499       .  S
C48        C2248   1.487   1_556  S
C49        C1828   1.466       .  S
C50        C2117   1.477       .  S
O51          V59   1.889       .  S
O51          C61   1.264       .  A
O52          V59   1.891       .  S
O52          C62   1.263       .  A
O53          V59   1.887       .  S
O53          C63   1.262       .  A
O54          V59   1.890       .  S
O54          C64   1.260       .  A
O55          V60   1.885       .  S
O55          C64   1.262       .  A
O56          V60   1.898       .  S
O56          C63   1.261       .  A
O57          V60   1.894       .  S
O57          C62   1.264       .  A
O58          V60   1.891       .  S
O58          C61   1.261       .  A
V59          V60   2.087       .  T
C61        C1888   1.478       .  S
C62        C2188   1.478       .  S
C63        C2137   1.458       .  S
C64        C1937   1.455       .  S
O65          V73   1.894       .  S
O65          C75   1.261       .  A
O66          V73   1.892       .  S
O66          C76   1.262       .  A
O67          V73   1.903       .  S
O67          C77   1.265       .  A
O68          V73   1.913       .  S
O68          C78   1.270       .  A
O69          V74   1.910       .  S
O69          C78   1.265       .  A
O70          V74   1.897       .  S
O70          C77   1.263       .  A
O71          V74   1.912       .  S
O71          C76   1.267       .  A
O72          V74   1.904       .  S
O72          C75   1.267       .  A
V73          V74   2.085       .  T
C75        C2088   1.481       .  S
C76        C1988   1.477       .  S
C77        C2037   1.469       .  S
C78        C2217   1.504   1_556  S
O79          V87   1.907       .  S
O79          C89   1.265       .  A
O80          V87   1.896       .  S
O80          C90   1.262       .  A
O81          V87   1.921       .  S
O81          C91   1.269       .  A
O82          V87   1.917       .  S
O82          C92   1.270       .  A
O83          V88   1.910       .  S
O83          C92   1.265       .  A
O84          V88   1.913       .  S
O84          C91   1.268       .  A
O85          V88   1.908       .  S
O85          C90   1.268       .  A
O86          V88   1.909       .  S
O86          C89   1.266       .  A
V87          V88   2.084       .  T
C89        C1917   1.484       .  S
C90        C1997   1.486       .  S
C91        C1968   1.501       .  S
C92        C1848   1.493       .  S
C93         C281   2.018       .  S
C93        C1768   1.713       .  S
C93        C1788   1.699       .  S
C93        C1808   1.693       .  S
C94         C278   2.011       .  S
C94        C1697   1.692       .  S
C94        C1717   1.714       .  S
C94        C1737   1.690       .  S
C95         C280   1.970       .  S
C95        C1648   1.688       .  S
C95        C1668   1.642       .  S
C95        C1688   1.622       .  S
C96         C277   1.997       .  S
C96        C1577   1.682       .  S
C96        C1597   1.724       .  S
C96        C1617   1.666       .  S
O97         V105   1.899       .  S
O97         C107   1.265       .  A
O98         V105   1.895       .  S
O98         C108   1.263       .  A
O99         V105   1.907       .  S
O99         C109   1.265       .  A
O100        V105   1.895       .  S
O100        C110   1.262       .  A
O101        V106   1.922       .  S
O101        C110   1.270       .  A
O102        V106   1.928       .  S
O102        C109   1.271       .  A
O103        V106   1.896       .  S
O103        C108   1.264       .  A
O104        V106   1.895       .  S
O104        C107   1.262       .  A
V105        V106   2.084       .  T
C107       C1797   1.476       .  S
C108       C1588   1.478       .  S
C109       C1728   1.498       .  S
C110       C1657   1.498       .  S
C111        C282   1.995       .  S
C111       C1528   1.704       .  S
C111       C1537   1.670       .  S
C111       C1557   1.710       .  S
C112        C279   1.971       .  S
C112       C1468   1.664       .  S
C112       C1488   1.693       .  S
C112       C1497   1.664       .  S
C113        C283   1.996       .  S
C113       C1397   1.658       .  S
C113       C1417   1.697       .  S
C113       C1437   1.659       .  S
C114        C376   2.004       .  S
C114       C1337   1.708       .  S
C114       C1357   1.645       .  S
C114       C1377   1.680       .  S
O115        V123   1.904       .  S
O115        C125   1.266       .  A
O116        V123   1.900       .  S
O116        C126   1.264       .  A
O117        V123   1.908       .  S
O117        C127   1.267       .  A
O118        V123   1.905       .  S
O118        C128   1.267       .  A
O119        V124   1.896       .  S
O119        C128   1.263       .  A
O120        V124   1.904       .  S
O120        C127   1.263       .  A
O121        V124   1.919       .  S
O121        C126   1.268       .  A
O122        V124   1.927       .  S
O122        C125   1.271       .  A
V123        V124   2.083       .  T
C125       C1757   1.503   1_565  S
C126       C1517   1.482       .  S
C127       C1368   1.477       .  S
C128       C1708   1.486   1_565  S
O129        V137   1.905       .  S
O129        C139   1.267       .  A
O130        V137   1.900       .  S
O130        C140   1.264       .  A
O131        V137   1.910       .  S
O131        C141   1.267       .  A
O132        V137   1.902       .  S
O132        C142   1.265       .  A
O133        V138   1.898       .  S
O133        C142   1.262       .  A
O134        V138   1.891       .  S
O134        C141   1.263       .  A
O135        V138   1.899       .  S
O135        C140   1.264       .  A
O136        V138   1.902       .  S
O136        C139   1.265       .  A
V137        V138   2.084       .  T
C139       C1348   1.492       .  S
C140       C1637   1.469       .  S
C141       C1408   1.482       .  S
C142       C1777   1.466   1_565  S
O143        V151   1.927       .  S
O143        C153   1.271       .  A
O144        V151   1.937       .  S
O144        C154   1.275       .  A
O145        V151   1.897       .  S
O145        C155   1.261       .  A
O146        V151   1.879       .  S
O146        C156   1.259       .  A
O147        V152   1.905       .  S
O147        C156   1.266       .  A
O148        V152   1.905       .  S
O148        C155   1.269       .  A
O149        V152   1.897       .  S
O149        C154   1.262       .  A
O150        V152   1.882       .  S
O150        C153   1.260       .  A
V151        V152   2.085       .  T
C153       C1448   1.485       .  S
C154       C1608   1.502   1_565  S
C155       C1508   1.480       .  S
C156       C1677   1.468       .  S
O157        V165   1.917       .  S
O157        C167   1.272       .  A
O158        V165   1.917       .  S
O158        C168   1.269       .  A
O159        V165   1.890       .  S
O159        C169   1.260       .  A
O160        V165   1.890       .  S
O160        C170   1.260       .  A
O161        V166   1.916       .  S
O161        C170   1.268       .  A
O162        V166   1.915       .  S
O162        C169   1.270       .  A
O163        V166   1.889       .  S
O163        C168   1.261       .  A
O164        V166   1.895       .  S
O164        C167   1.261       .  A
V165        V166   2.081       .  T
C167       C1568   1.492       .  S
C168       C1628   1.485   1_565  S
C169       C1748   1.494   1_565  S
C170       C1477   1.474       .  S
O171        V179   1.901       .  S
O171        C181   1.263       .  A
O172        V179   1.904       .  S
O172        C182   1.264       .  A
O173        V179   1.908       .  S
O173        C183   1.266       .  A
O174        V179   1.911       .  S
O174        C184   1.267       .  A
O175        V180   1.903       .  S
O175        C184   1.266       .  A
O176        V180   1.907       .  S
O176        C183   1.267       .  A
O177        V180   1.912       .  S
O177        C182   1.268       .  A
O178        V180   1.905       .  S
O178        C181   1.265       .  A
V179        V180   2.083       .  T
C181       C1457   1.476       .  S
C182       C1388   1.495       .  S
C183       C1428   1.499       .  S
C184       C1548   1.494       .  S
C185        C281   1.980       .  S
C185       C1277   1.655       .  S
C185       C1297   1.656       .  S
C185       C1328   1.693       .  S
C186        C278   2.012       .  S
C186       C1228   1.657       .  S
C186       C1248   1.673       .  S
C186       C1268   1.712       .  S
C187        C282   1.963       .  S
C187       C1157   1.615       .  S
C187       C1177   1.690       .  S
C187       C1197   1.669       .  S
C188        C376   2.000       .  S
C188       C1097   1.687       .  S
C188       C1117   1.686       .  S
C188       C1137   1.652       .  S
O189        V197   1.889       .  S
O189        C199   1.260       .  A
O190        V197   1.901       .  S
O190        C200   1.263       .  A
O191        V197   1.900       .  S
O191        C201   1.268       .  A
O192        V197   1.906       .  S
O192        C202   1.265       .  A
O193        V198   1.887       .  S
O193        C202   1.260       .  A
O194        V198   1.895       .  S
O194        C201   1.261       .  A
O195        V198   1.901       .  S
O195        C200   1.266       .  A
O196        V198   1.892       .  S
O196        C199   1.265       .  A
V197        V198   2.085       .  T
C199       C1088   1.475       .  S
C200       C1108   1.476   1_455  S
C201       C1068   1.486       .  S
C202       C1168   1.460       .  S
O203        V211   1.893       .  S
O203        C213   1.262       .  A
O204        V211   1.892       .  S
O204        C214   1.264       .  A
O205        V211   1.901       .  S
O205        C215   1.266       .  A
O206        V211   1.897       .  S
O206        C216   1.263       .  A
O207        V212   1.905       .  S
O207        C216   1.264       .  A
O208        V212   1.909       .  S
O208        C215   1.266       .  A
O209        V212   1.908       .  S
O209        C214   1.266       .  A
O210        V212   1.900       .  S
O210        C213   1.264       .  A
V211        V212   2.087       .  T
C213       C1048   1.463       .  S
C214       C1128   1.479       .  S
C215       C1028   1.488       .  S
C216       C1288   1.470       .  S
O217        V225   1.904       .  S
O217        C227   1.263       .  A
O218        V225   1.905       .  S
O218        C228   1.266       .  A
O219        V225   1.907       .  S
O219        C229   1.267       .  A
O220        V225   1.905       .  S
O220        C230   1.265       .  A
O221        V226   1.892       .  S
O221        C230   1.264       .  A
O222        V226   1.896       .  S
O222        C229   1.262       .  A
O223        V226   1.916       .  S
O223        C228   1.268       .  A
O224        V226   1.907       .  S
O224        C227   1.268       .  A
V225        V226   2.083       .  T
C227       C1008   1.485       .  S
C228       C1257   1.499       .  S
C229        C988   1.483       .  S
C230       C1208   1.487   1_455  S
O231        V239   1.906       .  S
O231        C241   1.265       .  A
O232        V239   1.896       .  S
O232        C242   1.264       .  A
O233        V239   1.904       .  S
O233        C243   1.264       .  A
O234        V239   1.887       .  S
O234        C244   1.262       .  A
O235        V240   1.906       .  S
O235        C244   1.264       .  A
O236        V240   1.906       .  S
O236        C243   1.266       .  A
O237        V240   1.915       .  S
O237        C242   1.267       .  A
O238        V240   1.914       .  S
O238        C241   1.269       .  A
V239        V240   2.087       .  T
C241        C968   1.493       .  S
C242       C1237   1.479       .  S
C243       C1317   1.480       .  S
C244        C948   1.463       .  S
O245        V253   1.915       .  S
O245        C255   1.268       .  A
O246        V253   1.919       .  S
O246        C256   1.268       .  A
O247        V253   1.916       .  S
O247        C257   1.267       .  A
O248        V253   1.911       .  S
O248        C258   1.267       .  A
O249        V254   1.902       .  S
O249        C258   1.263       .  A
O250        V254   1.898       .  S
O250        C257   1.266       .  A
O251        V254   1.897       .  S
O251        C256   1.266       .  A
O252        V254   1.895       .  S
O252        C255   1.264       .  A
V253        V254   2.083       .  T
C255       C1217   1.489       .  S
C256       C1148   1.499       .  S
C257       C1188   1.494       .  S
C258       C1308   1.478       .  S
C259        C280   1.994       .  S
C259        C917   1.706       .  S
C259        C957   1.690       .  S
C259       C1037   1.669       .  S
C260        C279   1.978       .  S
C260        C908   1.680       .  S
C260        C997   1.694       .  S
C260       C1077   1.621       .  S
C261        C283   2.008       .  S
C261        C877   1.656       .  S
C261       C1017   1.685       .  S
C261       C1057   1.693       .  S
C262        C277   1.956       .  S
C262        C857   1.691       .  S
C262        C937   1.627       .  S
C262        C977   1.659       .  S
O263        V271   1.910       .  S
O263        C273   1.266       .  A
O264        V271   1.909       .  S
O264        C274   1.267       .  A
O265        V271   1.895       .  S
O265        C275   1.263       .  A
O266        V271   1.915       .  S
O266        C276   1.268       .  A
O267        V272   1.898       .  S
O267        C276   1.264       .  A
O268        V272   1.886       .  S
O268        C275   1.262       .  A
O269        V272   1.899       .  S
O269        C274   1.264       .  A
O270        V272   1.896       .  S
O270        C273   1.265       .  A
V271        V272   2.084       .  T
C273        C868   1.492       .  S
C274        C888   1.488       .  S
C275        C928   1.473       .  S
C276        C897   1.493       .  S
C277        C284   1.954       .  S
C278        C286   1.974       .  S
C279        C287   1.944       .  S
C280        C285   1.979       .  S
C281        C318   1.995       .  S
C282        C288   1.971       .  S
C283        C303   1.948       .  S
C284        C797   1.681       .  S
C284        C828   1.703       .  S
C284        C837   1.682       .  S
C285        C737   1.706       .  S
C285        C768   1.676       .  S
C285        C777   1.699       .  S
C286        C677   1.671       .  S
C286        C708   1.693       .  S
C286        C717   1.639       .  S
C287        C617   1.677       .  S
C287        C648   1.724       .  S
C287        C657   1.656       .  S
C288        C568   1.676       .  S
C288        C577   1.657       .  S
C288        C608   1.707       .  S
O289        V297   1.890       .  S
O289        C299   1.261       .  A
O290        V297   1.886       .  S
O290        C300   1.262       .  A
O291        V297   1.912       .  S
O291        C301   1.267       .  A
O292        V297   1.910       .  S
O292        C302   1.267       .  A
O293        V298   1.884       .  S
O293        C302   1.258       .  A
O294        V298   1.879       .  S
O294        C301   1.259       .  A
O295        V298   1.909       .  S
O295        C300   1.267       .  A
O296        V298   1.909       .  S
O296        C299   1.268       .  A
V297        V298   2.085       .  T
C299        C557   1.479   1_455  S
C300        C817   1.488       .  S
C301        C697   1.470   1_565  S
C302        C637   1.463       .  S
C303        C497   1.664       .  S
C303        C528   1.671       .  S
C303        C537   1.644       .  S
O304        V312   1.899       .  S
O304        C314   1.262       .  A
O305        V312   1.895       .  S
O305        C315   1.265       .  A
O306        V312   1.903       .  S
O306        C316   1.265       .  A
O307        V312   1.896       .  S
O307        C317   1.264       .  A
O308        V313   1.903       .  S
O308        C317   1.265       .  A
O309        V313   1.898       .  S
O309        C316   1.264       .  A
O310        V313   1.895       .  S
O310        C315   1.261       .  A
O311        V313   1.888       .  S
O311        C314   1.263       .  A
V312        V313   2.087       .  T
C314        C508   1.462       .  S
C315        C808   1.472   1_556  S
C316        C628   1.484       .  S
C317        C748   1.480   1_565  S
C318        C437   1.664       .  S
C318        C457   1.642       .  S
C318        C477   1.661       .  S
O319        V327   1.888       .  S
O319        C329   1.263       .  A
O320        V327   1.883       .  S
O320        C330   1.263       .  A
O321        V327   1.899       .  S
O321        C331   1.265       .  A
O322        V327   1.902       .  S
O322        C332   1.264       .  A
O323        V328   1.913       .  S
O323        C332   1.269       .  A
O324        V328   1.916       .  S
O324        C331   1.266       .  A
O325        V328   1.913       .  S
O325        C330   1.266       .  A
O326        V328   1.922       .  S
O326        C329   1.269       .  A
V327        V328   2.082       .  T
C329        C448   1.495       .  S
C330        C848   1.488   1_556  S
C331        C688   1.484       .  S
C332        C757   1.495       .  S
C333        C376   1.940       .  S
C333        C388   1.661       .  S
C333        C408   1.672       .  S
C333        C417   1.612       .  S
O334        V342   1.903       .  S
O334        C344   1.266       .  A
O335        V342   1.920       .  S
O335        C345   1.268       .  A
O336        V342   1.915       .  S
O336        C346   1.266       .  A
O337        V342   1.912       .  S
O337        C347   1.267       .  A
O338        V343   1.908       .  S
O338        C347   1.266       .  A
O339        V343   1.903       .  S
O339        C346   1.266       .  A
O340        V343   1.901       .  S
O340        C345   1.263       .  A
O341        V343   1.895       .  S
O341        C344   1.263       .  A
V342        V343   2.086       .  T
C344        C668   1.487       .  S
C345        C397   1.483       .  S
C346        C548   1.484       .  S
C347        C597   1.488       .  S
O348        V356   1.891       .  S
O348        C358   1.262       .  A
O349        V356   1.884       .  S
O349        C359   1.262       .  A
O350        V356   1.915       .  S
O350        C360   1.269       .  A
O351        V356   1.920       .  S
O351        C361   1.269       .  A
O352        V357   1.912       .  S
O352        C361   1.266       .  A
O353        V357   1.903       .  S
O353        C360   1.264       .  A
O354        V357   1.932       .  S
O354        C359   1.271       .  A
O355        V357   1.929       .  S
O355        C358   1.272       .  A
V356        V357   2.083       .  T
C358        C468   1.504   1_565  S
C359        C588   1.489       .  S
C360        C377   1.492       .  S
C361        C728   1.495       .  S
O362        V370   1.904       .  S
O362        C372   1.264       .  A
O363        V370   1.897       .  S
O363        C373   1.264       .  A
O364        V370   1.892       .  S
O364        C374   1.262       .  A
O365        V370   1.888       .  S
O365        C375   1.262       .  A
O366        V371   1.896       .  S
O366        C375   1.263       .  A
O367        V371   1.892       .  S
O367        C374   1.263       .  A
O368        V371   1.906       .  S
O368        C373   1.264       .  A
O369        V371   1.894       .  S
O369        C372   1.265       .  A
V370        V371   2.087       .  T
C372        C488   1.483   1_455  S
C373        C517   1.471       .  S
C374        C788   1.464       .  S
C375        C428   1.463   1_455  S
C377        C378   1.409       .  A
C377        C382   1.409       .  A
C378        C379   1.403       .  A
C378       Br394   1.921       .  S
C379        C380   1.412       .  A
C379        H383   1.081       .  S
C380        C384   1.503       .  S
C380        C381   1.409       .  A
C381        C382   1.407       .  A
C381       Br393   1.912       .  S
C382        H385   1.083       .  S
C384        C386   1.377       .  A
C384        C390   1.404       .  A
C386        C387   1.403       .  A
C386        H391   1.086       .  S
C387        C388   1.478       .  A
C387       Br395   1.934       .  S
C388        C389   1.415       .  A
C389        C390   1.424       .  A
C389        H392   1.030       .  S
C390       Br396   1.905       .  S
C397        C398   1.408   1_455  A
C397        C402   1.401       .  A
C398        C399   1.407       .  A
C398       Br414   1.918       .  S
C399        C400   1.410       .  A
C399        H403   1.082       .  S
C400        C404   1.494       .  S
C400        C401   1.408       .  A
C401        C402   1.400   1_655  A
C401       Br413   1.915   1_655  S
C402        H405   1.076       .  S
C404        C406   1.383       .  A
C404        C410   1.389       .  A
C406        C407   1.415       .  A
C406        H411   1.086       .  S
C407        C408   1.487       .  A
C407       Br415   1.928       .  S
C408        C409   1.409       .  A
C409        C410   1.419       .  A
C409        H412   1.015       .  S
C410       Br416   1.921       .  S
C417        C418   1.465       .  A
C417        C422   1.412       .  A
C418        C419   1.412       .  A
C418       Br434   1.911       .  S
C419        C420   1.374       .  A
C419        H423   1.087       .  S
C420        C424   1.471       .  S
C420        C421   1.379       .  A
C421        C422   1.408       .  A
C421       Br433   1.926       .  S
C422        H425   1.052       .  S
C424        C426   1.403       .  A
C424        C430   1.405       .  A
C426        C427   1.392       .  A
C426        H431   1.084       .  S
C427        C428   1.408       .  A
C427       Br435   1.921   1_655  S
C428        C429   1.404       .  A
C429        C430   1.396       .  A
C429        H432   1.084       .  S
C430       Br436   1.917       .  S
C437        C438   1.486       .  A
C437        C442   1.415       .  A
C438        C439   1.414       .  A
C438       Br454   1.922       .  S
C439        C440   1.382       .  A
C439        H443   1.084       .  S
C440        C444   1.507       .  S
C440        C441   1.395       .  A
C441        C442   1.416       .  A
C441       Br453   1.922       .  S
C442        H445   1.021       .  S
C444        C446   1.410       .  A
C444        C450   1.417   1_655  A
C446        C447   1.408   1_655  A
C446        H451   1.083       .  S
C447        C448   1.414       .  A
C447       Br455   1.917       .  S
C448        C449   1.405       .  A
C449        C450   1.396       .  A
C449        H452   1.084       .  S
C450       Br456   1.921       .  S
C457        C458   1.485       .  A
C457        C462   1.432       .  A
C458        C459   1.418       .  A
C458       Br474   1.937       .  S
C459        C460   1.378       .  A
C459        H463   1.086       .  S
C460        C464   1.497       .  S
C460        C461   1.383       .  A
C461        C462   1.425       .  A
C461       Br473   1.932       .  S
C462        H465   1.069       .  S
C464        C466   1.408       .  A
C464        C470   1.406       .  A
C466        C467   1.410       .  A
C466        H471   1.084       .  S
C467        C468   1.417       .  A
C467       Br475   1.919       .  S
C468        C469   1.413       .  A
C469        C470   1.400       .  A
C469        H472   1.083       .  S
C470       Br476   1.918       .  S
C477        C478   1.490       .  A
C477        C482   1.386       .  A
C478        C479   1.402       .  A
C478       Br494   1.931       .  S
C479        C480   1.375       .  A
C479        H483   1.085       .  S
C480        C484   1.486       .  S
C480        C481   1.388       .  A
C481        C482   1.419       .  A
C481       Br493   1.907       .  S
C482        H485   1.020       .  S
C484        C486   1.404       .  A
C484        C490   1.411       .  A
C486        C487   1.402   1_545  A
C486        H491   1.084       .  S
C487        C488   1.415       .  A
C487       Br495   1.919       .  S
C488        C489   1.402   1_565  A
C489        C490   1.392       .  A
C489        H492   1.084   1_655  S
C490       Br496   1.913       .  S
C497        C498   1.476       .  A
C497        C502   1.456       .  A
C498        C499   1.405       .  A
C498       Br514   1.919       .  S
C499        C500   1.368       .  A
C499        H503   1.088       .  S
C500        C504   1.487       .  S
C500        C501   1.390       .  A
C501        C502   1.417       .  A
C501       Br513   1.920       .  S
C502        H505   1.059       .  S
C504        C506   1.406       .  A
C504        C510   1.420       .  A
C506        C507   1.404       .  A
C506        H511   1.083       .  S
C507        C508   1.408       .  A
C507       Br515   1.915       .  S
C508        C509   1.390       .  A
C509        C510   1.386       .  A
C509        H512   1.085       .  S
C510       Br516   1.917       .  S
C517        C518   1.408       .  A
C517        C522   1.395       .  A
C518        C519   1.406       .  A
C518       Br534   1.917       .  S
C519        C520   1.408       .  A
C519        H523   1.081       .  S
C520        C524   1.498       .  S
C520        C521   1.417       .  A
C521        C522   1.394       .  A
C521       Br533   1.917       .  S
C522        H525   1.084       .  S
C524        C526   1.372       .  A
C524        C530   1.395       .  A
C526        C527   1.395       .  A
C526        H531   1.086       .  S
C527        C528   1.454       .  A
C527       Br535   1.906       .  S
C528        C529   1.423       .  A
C529        C530   1.430       .  A
C529        H532   1.047       .  S
C530       Br536   1.897       .  S
C537        C538   1.486       .  A
C537        C542   1.409       .  A
C538        C539   1.393       .  A
C538       Br554   1.951       .  S
C539        C540   1.371       .  A
C539        H543   1.087       .  S
C540        C544   1.496       .  S
C540        C541   1.400       .  A
C541        C542   1.436       .  A
C541       Br553   1.920       .  S
C542        H545   1.063       .  S
C544        C546   1.404       .  A
C544        C550   1.411       .  A
C546        C547   1.390       .  A
C546        H551   1.075       .  S
C547        C548   1.403       .  A
C547       Br555   1.913       .  S
C548        C549   1.411       .  A
C549        C550   1.415       .  A
C549        H552   1.083       .  S
C550       Br556   1.916       .  S
C557        C558   1.411       .  A
C557        C562   1.399       .  A
C558        C559   1.398       .  A
C558       Br574   1.921   1_655  S
C559        C560   1.406       .  A
C559        H563   1.077       .  S
C560        C564   1.504       .  S
C560        C561   1.419       .  A
C561        C562   1.400       .  A
C561       Br573   1.909       .  S
C562        H565   1.084       .  S
C564        C566   1.388       .  A
C564        C570   1.392       .  A
C566        C567   1.422       .  A
C566        H571   1.086       .  S
C567        C568   1.474       .  A
C567       Br575   1.907       .  S
C568        C569   1.437       .  A
C569        C570   1.399       .  A
C569        H572   1.049       .  S
C570       Br576   1.927       .  S
C577        C578   1.479       .  A
C577        C582   1.395       .  A
C578        C579   1.416       .  A
C578       Br594   1.932       .  S
C579        C580   1.387       .  A
C579        H583   1.084       .  S
C580        C584   1.505       .  S
C580        C581   1.395       .  A
C581        C582   1.419       .  A
C581       Br593   1.909       .  S
C582        H585   1.022       .  S
C584        C586   1.410       .  A
C584        C590   1.412       .  A
C586        C587   1.418   1_554  A
C586        H591   1.083       .  S
C587        C588   1.414       .  A
C587       Br595   1.915       .  S
C588        C589   1.395   1_556  A
C589        C590   1.391       .  A
C589        H592   1.084       .  S
C590       Br596   1.891       .  S
C597        C598   1.409   1_556  A
C597        C602   1.397   1_455  A
C598        C599   1.407       .  A
C598       Br614   1.919       .  S
C599        C600   1.411   1_455  A
C599        H603   1.080       .  S
C600        C604   1.524       .  S
C600        C601   1.430       .  A
C601        C602   1.405   1_554  A
C601       Br613   1.921       .  S
C602        H605   1.084       .  S
C604        C606   1.376       .  A
C604        C610   1.403       .  A
C606        C607   1.410       .  A
C606        H611   1.085       .  S
C607        C608   1.490       .  A
C607       Br615   1.914       .  S
C608        C609   1.430       .  A
C609        C610   1.430       .  A
C609        H612   1.031       .  S
C610       Br616   1.918       .  S
C617        C618   1.470       .  A
C617        C622   1.414       .  A
C618        C619   1.406       .  A
C618       Br634   1.956       .  S
C619        C620   1.382       .  A
C619        H623   1.087       .  S
C620        C624   1.491       .  S
C620        C621   1.397       .  A
C621        C622   1.417       .  A
C621       Br633   1.917       .  S
C622        H625   1.032       .  S
C624        C626   1.403       .  A
C624        C630   1.411       .  A
C626        C627   1.394       .  A
C626        H631   1.084       .  S
C627        C628   1.413   1_554  A
C627       Br635   1.918       .  S
C628        C629   1.407       .  A
C629        C630   1.403   1_556  A
C629        H632   1.083       .  S
C630       Br636   1.911       .  S
C637        C638   1.406       .  A
C637        C642   1.400       .  A
C638        C639   1.396       .  A
C638       Br654   1.918       .  S
C639        C640   1.401       .  A
C639        H643   1.084       .  S
C640        C644   1.475       .  S
C640        C641   1.409       .  A
C641        C642   1.398       .  A
C641       Br653   1.915       .  S
C642        H645   1.084       .  S
C644        C646   1.370       .  A
C644        C650   1.369       .  A
C646        C647   1.431       .  A
C646        H651   1.092       .  S
C647        C648   1.503       .  A
C647       Br655   1.925       .  S
C648        C649   1.463       .  A
C649        C650   1.393       .  A
C649        H652   1.045       .  S
C650       Br656   1.921       .  S
C657        C658   1.479       .  A
C657        C662   1.408       .  A
C658        C659   1.396       .  A
C658       Br674   1.918       .  S
C659        C660   1.369       .  A
C659        H663   1.087       .  S
C660        C664   1.480       .  S
C660        C661   1.388       .  A
C661        C662   1.429       .  A
C661       Br673   1.925       .  S
C662        H665   1.046       .  S
C664        C666   1.400       .  A
C664        C670   1.404       .  A
C666        C667   1.396   1_554  A
C666        H671   1.082       .  S
C667        C668   1.418       .  A
C667       Br675   1.923       .  S
C668        C669   1.410   1_556  A
C669        C670   1.401       .  A
C669        H672   1.083       .  S
C670       Br676   1.915       .  S
C677        C678   1.437       .  A
C677        C682   1.458       .  A
C678        C679   1.419       .  A
C678       Br694   1.896       .  S
C679        C680   1.396       .  A
C679        H683   1.079       .  S
C680        C684   1.502       .  S
C680        C681   1.390       .  A
C681        C682   1.407       .  A
C681       Br693   1.926       .  S
C682        H685   1.069       .  S
C684        C686   1.408       .  A
C684        C690   1.420       .  A
C686        C687   1.412   1_655  A
C686        H691   1.083       .  S
C687        C688   1.414   1_554  A
C687       Br695   1.917       .  S
C688        C689   1.394   1_455  A
C689        C690   1.395   1_556  A
C689        H692   1.084       .  S
C690       Br696   1.905   1_554  S
C697        C698   1.410       .  A
C697        C702   1.400   1_455  A
C698        C699   1.394   1_455  A
C698       Br714   1.922       .  S
C699        C700   1.403       .  A
C699        H703   1.084       .  S
C700        C704   1.484       .  S
C700        C701   1.411       .  A
C701        C702   1.399       .  A
C701       Br713   1.911       .  S
C702        H705   1.084   1_545  S
C704        C706   1.377       .  A
C704        C710   1.379       .  A
C706        C707   1.416       .  A
C706        H711   1.087       .  S
C707        C708   1.481       .  A
C707       Br715   1.929       .  S
C708        C709   1.432       .  A
C709        C710   1.398       .  A
C709        H712   1.016       .  S
C710       Br716   1.925       .  S
C717        C718   1.487       .  A
C717        C722   1.417       .  A
C718        C719   1.416       .  A
C718       Br734   1.933       .  S
C719        C720   1.380       .  A
C719        H723   1.087       .  S
C720        C724   1.506       .  S
C720        C721   1.400       .  A
C721        C722   1.437       .  A
C721       Br733   1.908       .  S
C722        H725   1.053       .  S
C724        C726   1.408       .  A
C724        C730   1.414       .  A
C726        C727   1.407   1_545  A
C726        H731   1.080       .  S
C727        C728   1.410   1_554  A
C727       Br735   1.917       .  S
C728        C729   1.407   1_565  A
C729        C730   1.408   1_556  A
C729        H732   1.084       .  S
C730       Br736   1.913   1_554  S
C737        C738   1.454       .  A
C737        C742   1.454       .  A
C738        C739   1.401       .  A
C738       Br754   1.905       .  S
C739        C740   1.391       .  A
C739        H743   1.088       .  S
C740        C744   1.489       .  S
C740        C741   1.399       .  A
C741        C742   1.419       .  A
C741       Br753   1.923       .  S
C742        H745   1.056       .  S
C744        C746   1.406       .  A
C744        C750   1.414       .  A
C746        C747   1.402       .  A
C746        H751   1.082       .  S
C747        C748   1.410       .  A
C747       Br755   1.918       .  S
C748        C749   1.403       .  A
C749        C750   1.396       .  A
C749        H752   1.083   1_545  S
C750       Br756   1.922       .  S
C757        C758   1.418       .  A
C757        C762   1.406       .  A
C758        C759   1.405       .  A
C758       Br774   1.921       .  S
C759        C760   1.404       .  A
C759        H763   1.084       .  S
C760        C764   1.493       .  S
C760        C761   1.410       .  A
C761        C762   1.401       .  A
C761       Br773   1.913       .  S
C762        H765   1.083       .  S
C764        C766   1.374       .  A
C764        C770   1.389       .  A
C766        C767   1.411       .  A
C766        H771   1.088       .  S
C767        C768   1.500       .  A
C767       Br775   1.937       .  S
C768        C769   1.412       .  A
C769        C770   1.421       .  A
C769        H772   1.031       .  S
C770       Br776   1.917       .  S
C777        C778   1.470       .  A
C777        C782   1.475       .  A
C778        C779   1.418       .  A
C778       Br794   1.877       .  S
C779        C780   1.374       .  A
C779        H783   1.089       .  S
C780        C784   1.479       .  S
C780        C781   1.375       .  A
C781        C782   1.393       .  A
C781       Br793   1.921       .  S
C782        H785   1.069       .  S
C784        C786   1.402       .  A
C784        C790   1.414       .  A
C786        C787   1.396   1_545  A
C786        H791   1.083       .  S
C787        C788   1.408       .  A
C787       Br795   1.918       .  S
C788        C789   1.400   1_565  A
C789        C790   1.394       .  A
C789        H792   1.084       .  S
C790       Br796   1.923       .  S
C797        C798   1.471       .  A
C797        C802   1.459       .  A
C798        C799   1.420       .  A
C798       Br814   1.915       .  S
C799        C800   1.381       .  A
C799        H803   1.089       .  S
C800        C804   1.476       .  S
C800        C801   1.380       .  A
C801        C802   1.392       .  A
C801       Br813   1.924       .  S
C802        H805   1.058       .  S
C804        C806   1.401       .  A
C804        C810   1.412       .  A
C806        C807   1.399   1_545  A
C806        H811   1.084       .  S
C807        C808   1.413       .  A
C807       Br815   1.914       .  S
C808        C809   1.397   1_565  A
C809        C810   1.389       .  A
C809        H812   1.084   1_554  S
C810       Br816   1.912       .  S
C817        C818   1.415   1_565  A
C817        C822   1.409   1_565  A
C818        C819   1.400       .  A
C818       Br834   1.921   1_545  S
C819        C820   1.406       .  A
C819        H823   1.084       .  S
C820        C824   1.485       .  S
C820        C821   1.404       .  A
C821        C822   1.395       .  A
C821       Br833   1.910       .  S
C822        H825   1.083   1_545  S
C824        C826   1.392       .  A
C824        C830   1.397       .  A
C826        C827   1.400       .  A
C826        H831   1.086       .  S
C827        C828   1.438       .  A
C827       Br835   1.950       .  S
C828        C829   1.466       .  A
C829        C830   1.413       .  A
C829        H832   1.043       .  S
C830       Br836   1.923       .  S
C837        C838   1.494       .  A
C837        C842   1.416       .  A
C838        C839   1.417       .  A
C838       Br854   1.969       .  S
C839        C840   1.377       .  A
C839        H843   1.085       .  S
C840        C844   1.484       .  S
C840        C841   1.380       .  A
C841        C842   1.407       .  A
C841       Br853   1.925       .  S
C842        H845   1.040       .  S
C844        C846   1.405       .  A
C844        C850   1.405       .  A
C846        C847   1.404       .  A
C846        H851   1.082       .  S
C847        C848   1.416       .  A
C847       Br855   1.919       .  S
C848        C849   1.406       .  A
C849        C850   1.390       .  A
C849        H852   1.083       .  S
C850       Br856   1.910       .  S
C857        C858   1.490       .  A
C857        C862   1.441       .  A
C858        C859   1.432       .  A
C858       Br874   1.900       .  S
C859        C860   1.390       .  A
C859        H863   1.085       .  S
C860        C864   1.481       .  S
C860        C861   1.370       .  A
C861        C862   1.384       .  A
C861       Br873   1.937       .  S
C862        H865   1.039       .  S
C864        C866   1.406       .  A
C864        C870   1.405       .  A
C866        C867   1.406       .  A
C866        H871   1.084       .  S
C867        C868   1.417       .  A
C867       Br875   1.920       .  S
C868        C869   1.409       .  A
C869        C870   1.397       .  A
C869        H872   1.083       .  S
C870       Br876   1.919       .  S
C877        C878   1.492       .  A
C877        C882   1.430       .  A
C878        C879   1.419       .  A
C878       Br894   1.969       .  S
C879        C880   1.388       .  A
C879        H883   1.084       .  S
C880        C884   1.498       .  S
C880        C881   1.385       .  A
C881        C882   1.398       .  A
C881       Br893   1.927       .  S
C882        H885   1.037       .  S
C884        C886   1.409       .  A
C884        C890   1.408       .  A
C886        C887   1.399       .  A
C886        H891   1.081       .  S
C887        C888   1.410       .  A
C887       Br895   1.922       .  S
C888        C889   1.410       .  A
C889        C890   1.406       .  A
C889        H892   1.083       .  S
C890       Br896   1.915       .  S
C897        C898   1.415       .  A
C897        C902   1.406       .  A
C898        C899   1.399       .  A
C898       Br914   1.921       .  S
C899        C900   1.405       .  A
C899        H903   1.084       .  S
C900        C904   1.501       .  S
C900        C901   1.415       .  A
C901        C902   1.406       .  A
C901       Br913   1.915       .  S
C902        H905   1.083       .  S
C904        C906   1.377       .  A
C904        C910   1.390       .  A
C906        C907   1.417       .  A
C906        H911   1.086       .  S
C907        C908   1.489       .  A
C907       Br915   1.923       .  S
C908        C909   1.410       .  A
C909        C910   1.423       .  A
C909        H912   1.047       .  S
C910       Br916   1.931       .  S
C917        C918   1.516       .  A
C917        C922   1.457       .  A
C918        C919   1.414       .  A
C918       Br934   1.962       .  S
C919        C920   1.374       .  A
C919        H923   1.087       .  S
C920        C924   1.470       .  S
C920        C921   1.371       .  A
C921        C922   1.395       .  A
C921       Br933   1.931       .  S
C922        H925   1.037       .  S
C924        C926   1.401       .  A
C924        C930   1.402       .  A
C926        C927   1.394       .  A
C926        H931   1.082       .  S
C927        C928   1.413       .  A
C927       Br935   1.922       .  S
C928        C929   1.407       .  A
C929        C930   1.394       .  A
C929        H932   1.083       .  S
C930       Br936   1.915       .  S
C937        C938   1.482       .  A
C937        C942   1.392       .  A
C938        C939   1.393       .  A
C938       Br954   1.933       .  S
C939        C940   1.372       .  A
C939        H943   1.086       .  S
C940        C944   1.476       .  S
C940        C941   1.387       .  A
C941        C942   1.421       .  A
C941       Br953   1.897       .  S
C942        H945   1.028       .  S
C944        C946   1.405       .  A
C944        C950   1.407       .  A
C946        C947   1.402       .  A
C946        H951   1.084       .  S
C947        C948   1.407       .  A
C947       Br955   1.917       .  S
C948        C949   1.398       .  A
C949        C950   1.390       .  A
C949        H952   1.082       .  S
C950       Br956   1.918       .  S
C957        C958   1.491       .  A
C957        C962   1.426       .  A
C958        C959   1.402       .  A
C958       Br974   1.909       .  S
C959        C960   1.367       .  A
C959        H963   1.088       .  S
C960        C964   1.499       .  S
C960        C961   1.396       .  A
C961        C962   1.425       .  A
C961       Br973   1.918       .  S
C962        H965   1.031       .  S
C964        C966   1.404       .  A
C964        C970   1.420       .  A
C966        C967   1.409       .  A
C966        H971   1.083       .  S
C967        C968   1.418       .  A
C967       Br975   1.918       .  S
C968        C969   1.399       .  A
C969        C970   1.399       .  A
C969        H972   1.084       .  S
C970       Br976   1.918       .  S
C977        C978   1.478       .  A
C977        C982   1.415       .  A
C978        C979   1.424       .  A
C978       Br994   1.918       .  S
C979        C980   1.391       .  A
C979        H983   1.084       .  S
C980        C984   1.484       .  S
C980        C981   1.386       .  A
C981        C982   1.393       .  A
C981       Br993   1.930       .  S
C982        H985   1.016       .  S
C984        C986   1.404       .  A
C984        C990   1.407       .  A
C986        C987   1.398       .  A
C986        H991   1.082       .  S
C987        C988   1.413       .  A
C987       Br995   1.921       .  S
C988        C989   1.407       .  A
C989        C990   1.401       .  A
C989        H992   1.083       .  S
C990       Br996   1.917       .  S
C997        C998   1.465       .  A
C997       C1002   1.424       .  A
C998        C999   1.416       .  A
C998      Br1014   1.927       .  S
C999       C1000   1.390       .  A
C999       H1003   1.088       .  S
C1000      C1004   1.500       .  S
C1000      C1001   1.387       .  A
C1001      C1002   1.421       .  A
C1001     Br1013   1.919       .  S
C1002      H1005   1.009       .  S
C1004      C1006   1.406       .  A
C1004      C1010   1.418       .  A
C1006      C1007   1.412       .  A
C1006      H1011   1.083       .  S
C1007      C1008   1.415       .  A
C1007     Br1015   1.917       .  S
C1008      C1009   1.395       .  A
C1009      C1010   1.393       .  A
C1009      H1012   1.084       .  S
C1010     Br1016   1.909       .  S
C1017      C1018   1.494       .  A
C1017      C1022   1.417       .  A
C1018      C1019   1.400       .  A
C1018     Br1034   1.922       .  S
C1019      C1020   1.372       .  A
C1019      H1023   1.085       .  S
C1020      C1024   1.496       .  S
C1020      C1021   1.392       .  A
C1021      C1022   1.432       .  A
C1021     Br1033   1.918       .  S
C1022      H1025   1.040       .  S
C1024      C1026   1.406       .  A
C1024      C1030   1.411       .  A
C1026      C1027   1.404       .  A
C1026      H1031   1.081       .  S
C1027      C1028   1.414       .  A
C1027     Br1035   1.920       .  S
C1028      C1029   1.406       .  A
C1029      C1030   1.400       .  A
C1029      H1032   1.083       .  S
C1030     Br1036   1.921       .  S
C1037      C1038   1.446       .  A
C1037      C1042   1.477       .  A
C1038      C1039   1.417       .  A
C1038     Br1054   1.883       .  S
C1039      C1040   1.384       .  A
C1039      H1043   1.086       .  S
C1040      C1044   1.471       .  S
C1040      C1041   1.380       .  A
C1041      C1042   1.391       .  A
C1041     Br1053   1.919       .  S
C1042      H1045   1.081       .  S
C1044      C1046   1.404       .  A
C1044      C1050   1.402       .  A
C1046      C1047   1.394       .  A
C1046      H1051   1.080       .  S
C1047      C1048   1.402       .  A
C1047     Br1055   1.917       .  S
C1048      C1049   1.406       .  A
C1049      C1050   1.399       .  A
C1049      H1052   1.083       .  S
C1050     Br1056   1.916       .  S
C1057      C1058   1.442       .  A
C1057      C1062   1.460       .  A
C1058      C1059   1.412       .  A
C1058     Br1074   1.909       .  S
C1059      C1060   1.395       .  A
C1059      H1063   1.086       .  S
C1060      C1064   1.486       .  S
C1060      C1061   1.391       .  A
C1061      C1062   1.402       .  A
C1061     Br1073   1.917       .  S
C1062      H1065   1.064       .  S
C1064      C1066   1.401       .  A
C1064      C1070   1.408       .  A
C1066      C1067   1.405       .  A
C1066      H1071   1.083       .  S
C1067      C1068   1.420       .  A
C1067     Br1075   1.920       .  S
C1068      C1069   1.399       .  A
C1069      C1070   1.390       .  A
C1069      H1072   1.084       .  S
C1070     Br1076   1.896       .  S
C1077      C1078   1.462       .  A
C1077      C1082   1.415       .  A
C1078      C1079   1.388       .  A
C1078     Br1094   1.942       .  S
C1079      C1080   1.378       .  A
C1079      H1083   1.086       .  S
C1080      C1084   1.461       .  S
C1080      C1081   1.390       .  A
C1081      C1082   1.415       .  A
C1081     Br1093   1.921       .  S
C1082      H1085   1.056       .  S
C1084      C1086   1.396       .  A
C1084      C1090   1.402       .  A
C1086      C1087   1.395       .  A
C1086      H1091   1.084       .  S
C1087      C1088   1.418       .  A
C1087     Br1095   1.922       .  S
C1088      C1089   1.406       .  A
C1089      C1090   1.391       .  A
C1089      H1092   1.083       .  S
C1090     Br1096   1.920       .  S
C1097      C1098   1.447       .  A
C1097      C1102   1.442       .  A
C1098      C1099   1.423       .  A
C1098     Br1114   1.936       .  S
C1099      C1100   1.400       .  A
C1099      H1103   1.082       .  S
C1100      C1104   1.504       .  S
C1100      C1101   1.395       .  A
C1101      C1102   1.405       .  A
C1101     Br1113   1.931       .  S
C1102      H1105   1.044       .  S
C1104      C1106   1.411       .  A
C1104      C1110   1.419       .  A
C1106      C1107   1.402       .  A
C1106      H1111   1.080       .  S
C1107      C1108   1.407       .  A
C1107     Br1115   1.920   1_655  S
C1108      C1109   1.398       .  A
C1109      C1110   1.398       .  A
C1109      H1112   1.084       .  S
C1110     Br1116   1.912       .  S
C1117      C1118   1.485       .  A
C1117      C1122   1.428       .  A
C1118      C1119   1.414       .  A
C1118     Br1134   1.916       .  S
C1119      C1120   1.380       .  A
C1119      H1123   1.085       .  S
C1120      C1124   1.498       .  S
C1120      C1121   1.394       .  A
C1121      C1122   1.407       .  A
C1121     Br1133   1.923       .  S
C1122      H1125   1.021       .  S
C1124      C1126   1.408       .  A
C1124      C1130   1.418       .  A
C1126      C1127   1.405       .  A
C1126      H1131   1.083       .  S
C1127      C1128   1.410   1_655  A
C1127     Br1135   1.918       .  S
C1128      C1129   1.399       .  A
C1129      C1130   1.395   1_455  A
C1129      H1132   1.084       .  S
C1130     Br1136   1.920       .  S
C1137      C1138   1.473       .  A
C1137      C1142   1.399       .  A
C1138      C1139   1.400       .  A
C1138     Br1154   1.925       .  S
C1139      C1140   1.381       .  A
C1139      H1143   1.085       .  S
C1140      C1144   1.506       .  S
C1140      C1141   1.404       .  A
C1141      C1142   1.434       .  A
C1141     Br1153   1.921       .  S
C1142      H1145   1.038       .  S
C1144      C1146   1.408       .  A
C1144      C1150   1.418       .  A
C1146      C1147   1.412       .  A
C1146      H1151   1.081       .  S
C1147      C1148   1.418       .  A
C1147     Br1155   1.918       .  S
C1148      C1149   1.403       .  A
C1149      C1150   1.395       .  A
C1149      H1152   1.083       .  S
C1150     Br1156   1.920       .  S
C1157      C1158   1.485       .  A
C1157      C1162   1.378       .  A
C1158      C1159   1.401       .  A
C1158     Br1174   1.939       .  S
C1159      C1160   1.381       .  A
C1159      H1163   1.084       .  S
C1160      C1164   1.482       .  S
C1160      C1161   1.393       .  A
C1161      C1162   1.426       .  A
C1161     Br1173   1.923       .  S
C1162      H1165   1.029       .  S
C1164      C1166   1.405       .  A
C1164      C1170   1.411       .  A
C1166      C1167   1.403   1_655  A
C1166      H1171   1.084   1_655  S
C1167      C1168   1.408       .  A
C1167     Br1175   1.919       .  S
C1168      C1169   1.393   1_455  A
C1169      C1170   1.391       .  A
C1169      H1172   1.084       .  S
C1170     Br1176   1.907       .  S
C1177      C1178   1.492       .  A
C1177      C1182   1.436       .  A
C1178      C1179   1.413       .  A
C1178     Br1194   1.935       .  S
C1179      C1180   1.376       .  A
C1179      H1183   1.087       .  S
C1180      C1184   1.498       .  S
C1180      C1181   1.387       .  A
C1181      C1182   1.416       .  A
C1181     Br1193   1.924       .  S
C1182      H1185   1.017       .  S
C1184      C1186   1.407       .  A
C1184      C1190   1.413       .  A
C1186      C1187   1.412       .  A
C1186      H1191   1.083       .  S
C1187      C1188   1.418       .  A
C1187     Br1195   1.919       .  S
C1188      C1189   1.403       .  A
C1189      C1190   1.395       .  A
C1189      H1192   1.083       .  S
C1190     Br1196   1.918       .  S
C1197      C1198   1.493       .  A
C1197      C1202   1.408       .  A
C1198      C1199   1.402       .  A
C1198     Br1214   1.930       .  S
C1199      C1200   1.374       .  A
C1199      H1203   1.086       .  S
C1200      C1204   1.489       .  S
C1200      C1201   1.388       .  A
C1201      C1202   1.423       .  A
C1201     Br1213   1.914       .  S
C1202      H1205   1.037       .  S
C1204      C1206   1.404       .  A
C1204      C1210   1.410       .  A
C1206      C1207   1.400       .  A
C1206      H1211   1.083       .  S
C1207      C1208   1.415       .  A
C1207     Br1215   1.921   1_655  S
C1208      C1209   1.407       .  A
C1209      C1210   1.397       .  A
C1209      H1212   1.083       .  S
C1210     Br1216   1.917       .  S
C1217      C1218   1.414       .  A
C1217      C1222   1.406       .  A
C1218      C1219   1.405       .  A
C1218     Br1234   1.917       .  S
C1219      C1220   1.404       .  A
C1219      H1223   1.083       .  S
C1220      C1224   1.487       .  S
C1220      C1221   1.408       .  A
C1221      C1222   1.398       .  A
C1221     Br1233   1.913       .  S
C1222      H1225   1.084       .  S
C1224      C1226   1.383       .  A
C1224      C1230   1.378       .  A
C1226      C1227   1.421       .  A
C1226      H1231   1.081       .  S
C1227      C1228   1.461       .  A
C1227     Br1235   1.913       .  S
C1228      C1229   1.442       .  A
C1229      C1230   1.400       .  A
C1229      H1232   1.068       .  S
C1230     Br1236   1.929       .  S
C1237      C1238   1.408   1_455  A
C1237      C1242   1.401       .  A
C1238      C1239   1.406       .  A
C1238     Br1254   1.917       .  S
C1239      C1240   1.409       .  A
C1239      H1243   1.083       .  S
C1240      C1244   1.499       .  S
C1240      C1241   1.416       .  A
C1241      C1242   1.398   1_655  A
C1241     Br1253   1.922   1_655  S
C1242      H1245   1.084       .  S
C1244      C1246   1.372       .  A
C1244      C1250   1.392       .  A
C1246      C1247   1.400       .  A
C1246      H1251   1.086       .  S
C1247      C1248   1.476       .  A
C1247     Br1255   1.893       .  S
C1248      C1249   1.384       .  A
C1249      C1250   1.431       .  A
C1249      H1252   1.029       .  S
C1250     Br1256   1.920       .  S
C1257      C1258   1.417       .  A
C1257      C1262   1.411       .  A
C1258      C1259   1.401   1_455  A
C1258     Br1274   1.921       .  S
C1259      C1260   1.404       .  A
C1259      H1263   1.084       .  S
C1260      C1264   1.498       .  S
C1260      C1261   1.412       .  A
C1261      C1262   1.408   1_655  A
C1261     Br1273   1.920       .  S
C1262      H1265   1.083       .  S
C1264      C1266   1.375       .  A
C1264      C1270   1.379       .  A
C1266      C1267   1.424       .  A
C1266      H1271   1.088       .  S
C1267      C1268   1.503       .  A
C1267     Br1275   1.973       .  S
C1268      C1269   1.432       .  A
C1269      C1270   1.406       .  A
C1269      H1272   1.007       .  S
C1270     Br1276   1.923       .  S
C1277      C1278   1.487       .  A
C1277      C1282   1.396       .  A
C1278      C1279   1.417       .  A
C1278     Br1294   1.925       .  S
C1279      C1280   1.383       .  A
C1279      H1283   1.085       .  S
C1280      C1284   1.500       .  S
C1280      C1281   1.391       .  A
C1281      C1282   1.423       .  A
C1281     Br1293   1.919       .  S
C1282      H1285   1.012       .  S
C1284      C1286   1.412       .  A
C1284      C1290   1.414   1_655  A
C1286      C1287   1.397       .  A
C1286      H1291   1.080       .  S
C1287      C1288   1.401   1_655  A
C1287     Br1295   1.920       .  S
C1288      C1289   1.403       .  A
C1289      C1290   1.402       .  A
C1289      H1292   1.083       .  S
C1290     Br1296   1.917       .  S
C1297      C1298   1.490       .  A
C1297      C1302   1.414       .  A
C1298      C1299   1.415       .  A
C1298     Br1314   1.920       .  S
C1299      C1300   1.377       .  A
C1299      H1303   1.087       .  S
C1300      C1304   1.503       .  S
C1300      C1301   1.396       .  A
C1301      C1302   1.426       .  A
C1301     Br1313   1.910       .  S
C1302      H1305   1.034       .  S
C1304      C1306   1.409       .  A
C1304      C1310   1.420       .  A
C1306      C1307   1.404       .  A
C1306      H1311   1.084       .  S
C1307      C1308   1.407       .  A
C1307     Br1315   1.918       .  S
C1308      C1309   1.399       .  A
C1309      C1310   1.401       .  A
C1309      H1312   1.084       .  S
C1310     Br1316   1.918       .  S
C1317      C1318   1.409   1_455  A
C1317      C1322   1.397       .  A
C1318      C1319   1.404       .  A
C1318     Br1334   1.918       .  S
C1319      C1320   1.408       .  A
C1319      H1323   1.083       .  S
C1320      C1324   1.505       .  S
C1320      C1321   1.423       .  A
C1321      C1322   1.400   1_655  A
C1321     Br1333   1.921       .  S
C1322      H1325   1.084       .  S
C1324      C1326   1.382       .  A
C1324      C1330   1.390       .  A
C1326      C1327   1.426       .  A
C1326      H1331   1.087       .  S
C1327      C1328   1.460       .  A
C1327     Br1335   1.833       .  S
C1328      C1329   1.469       .  A
C1329      C1330   1.407       .  A
C1329      H1332   1.046       .  S
C1330     Br1336   1.929       .  S
C1337      C1338   1.496       .  A
C1337      C1342   1.456       .  A
C1338      C1339   1.425       .  A
C1338     Br1354   1.938       .  S
C1339      C1340   1.375       .  A
C1339      H1343   1.087       .  S
C1340      C1344   1.496       .  S
C1340      C1341   1.381       .  A
C1341      C1342   1.404       .  A
C1341     Br1353   1.937       .  S
C1342      H1345   1.041       .  S
C1344      C1346   1.404       .  A
C1344      C1350   1.408       .  A
C1346      C1347   1.400       .  A
C1346      H1351   1.084       .  S
C1347      C1348   1.416       .  A
C1347     Br1355   1.921       .  S
C1348      C1349   1.409       .  A
C1349      C1350   1.404       .  A
C1349      H1352   1.083       .  S
C1350     Br1356   1.915       .  S
C1357      C1358   1.495       .  A
C1357      C1362   1.420       .  A
C1358      C1359   1.393       .  A
C1358     Br1374   1.938       .  S
C1359      C1360   1.369       .  A
C1359      H1363   1.086       .  S
C1360      C1364   1.489       .  S
C1360      C1361   1.395       .  A
C1361      C1362   1.433       .  A
C1361     Br1373   1.911       .  S
C1362      H1365   1.035       .  S
C1364      C1366   1.407       .  A
C1364      C1370   1.408       .  A
C1366      C1367   1.400       .  A
C1366      H1371   1.083       .  S
C1367      C1368   1.406       .  A
C1367     Br1375   1.919       .  S
C1368      C1369   1.406       .  A
C1369      C1370   1.405       .  A
C1369      H1372   1.084       .  S
C1370     Br1376   1.917       .  S
C1377      C1378   1.489       .  A
C1377      C1382   1.432       .  A
C1378      C1379   1.406       .  A
C1378     Br1394   1.935       .  S
C1379      C1380   1.375       .  A
C1379      H1383   1.086       .  S
C1380      C1384   1.494       .  S
C1380      C1381   1.387       .  A
C1381      C1382   1.416       .  A
C1381     Br1393   1.916       .  S
C1382      H1385   1.054       .  S
C1384      C1386   1.403       .  A
C1384      C1390   1.411       .  A
C1386      C1387   1.403       .  A
C1386      H1391   1.083       .  S
C1387      C1388   1.418       .  A
C1387     Br1395   1.921       .  S
C1388      C1389   1.407       .  A
C1389      C1390   1.403       .  A
C1389      H1392   1.083       .  S
C1390     Br1396   1.915       .  S
C1397      C1398   1.483       .  A
C1397      C1402   1.412       .  A
C1398      C1399   1.393       .  A
C1398     Br1414   1.920       .  S
C1399      C1400   1.370       .  A
C1399      H1403   1.087       .  S
C1400      C1404   1.481       .  S
C1400      C1401   1.389       .  A
C1401      C1402   1.438       .  A
C1401     Br1413   1.930       .  S
C1402      H1405   1.045       .  S
C1404      C1406   1.404       .  A
C1404      C1410   1.404       .  A
C1406      C1407   1.399       .  A
C1406      H1411   1.084       .  S
C1407      C1408   1.413       .  A
C1407     Br1415   1.920       .  S
C1408      C1409   1.408       .  A
C1409      C1410   1.398       .  A
C1409      H1412   1.083       .  S
C1410     Br1416   1.917       .  S
C1417      C1418   1.501       .  A
C1417      C1422   1.419       .  A
C1418      C1419   1.418       .  A
C1418     Br1434   1.942       .  S
C1419      C1420   1.375       .  A
C1419      H1423   1.089       .  S
C1420      C1424   1.496       .  S
C1420      C1421   1.384       .  A
C1421      C1422   1.414       .  A
C1421     Br1433   1.922       .  S
C1422      H1425   1.037       .  S
C1424      C1426   1.405       .  A
C1424      C1430   1.412       .  A
C1426      C1427   1.402       .  A
C1426      H1431   1.083       .  S
C1427      C1428   1.417       .  A
C1427     Br1435   1.920       .  S
C1428      C1429   1.410       .  A
C1429      C1430   1.405       .  A
C1429      H1432   1.083       .  S
C1430     Br1436   1.917       .  S
C1437      C1438   1.474       .  A
C1437      C1442   1.404       .  A
C1438      C1439   1.389       .  A
C1438     Br1454   1.929       .  S
C1439      C1440   1.379       .  A
C1439      H1443   1.085       .  S
C1440      C1444   1.480       .  S
C1440      C1441   1.398       .  A
C1441      C1442   1.422       .  A
C1441     Br1453   1.919       .  S
C1442      H1445   1.041       .  S
C1444      C1446   1.408       .  A
C1444      C1450   1.403       .  A
C1446      C1447   1.406       .  A
C1446      H1451   1.080       .  S
C1447      C1448   1.409       .  A
C1447     Br1455   1.915       .  S
C1448      C1449   1.408       .  A
C1449      C1450   1.394       .  A
C1449      H1452   1.081       .  S
C1450     Br1456   1.921       .  S
C1457      C1458   1.409       .  A
C1457      C1462   1.403       .  A
C1458      C1459   1.401       .  A
C1458     Br1474   1.921       .  S
C1459      C1460   1.405       .  A
C1459      H1463   1.083       .  S
C1460      C1464   1.489       .  S
C1460      C1461   1.410       .  A
C1461      C1462   1.402       .  A
C1461     Br1473   1.919       .  S
C1462      H1465   1.084       .  S
C1464      C1466   1.366       .  A
C1464      C1470   1.386       .  A
C1466      C1467   1.401       .  A
C1466      H1471   1.088       .  S
C1467      C1468   1.480       .  A
C1467     Br1475   1.910       .  S
C1468      C1469   1.388       .  A
C1469      C1470   1.429       .  A
C1469      H1472   1.024       .  S
C1470     Br1476   1.907       .  S
C1477      C1478   1.406       .  A
C1477      C1482   1.396       .  A
C1478      C1479   1.407       .  A
C1478     Br1494   1.917       .  S
C1479      C1480   1.410       .  A
C1479      H1483   1.083       .  S
C1480      C1484   1.495       .  S
C1480      C1481   1.418       .  A
C1481      C1482   1.395       .  A
C1481     Br1493   1.914       .  S
C1482      H1485   1.084       .  S
C1484      C1486   1.389       .  A
C1484      C1490   1.407       .  A
C1486      C1487   1.397       .  A
C1486      H1491   1.085       .  S
C1487      C1488   1.440       .  A
C1487     Br1495   1.935       .  S
C1488      C1489   1.442       .  A
C1489      C1490   1.430       .  A
C1489      H1492   1.062       .  S
C1490     Br1496   1.896       .  S
C1497      C1498   1.487       .  A
C1497      C1502   1.421       .  A
C1498      C1499   1.412       .  A
C1498     Br1514   1.960       .  S
C1499      C1500   1.375       .  A
C1499      H1503   1.087       .  S
C1500      C1504   1.508       .  S
C1500      C1501   1.409       .  A
C1501      C1502   1.434       .  A
C1501     Br1513   1.921       .  S
C1502      H1505   1.035       .  S
C1504      C1506   1.408       .  A
C1504      C1510   1.428       .  A
C1506      C1507   1.407       .  A
C1506      H1511   1.083       .  S
C1507      C1508   1.414       .  A
C1507     Br1515   1.916       .  S
C1508      C1509   1.390       .  A
C1509      C1510   1.391       .  A
C1509      H1512   1.085       .  S
C1510     Br1516   1.917       .  S
C1517      C1518   1.412       .  A
C1517      C1522   1.394       .  A
C1518      C1519   1.412       .  A
C1518     Br1534   1.917       .  S
C1519      C1520   1.408       .  A
C1519      H1523   1.083       .  S
C1520      C1524   1.504       .  S
C1520      C1521   1.423       .  A
C1521      C1522   1.396       .  A
C1521     Br1533   1.919       .  S
C1522      H1525   1.084       .  S
C1524      C1526   1.407       .  A
C1524      C1530   1.397       .  A
C1526      C1527   1.416       .  A
C1526      H1531   1.085       .  S
C1527      C1528   1.424       .  A
C1527     Br1535   1.941       .  S
C1528      C1529   1.469       .  A
C1529      C1530   1.406       .  A
C1529      H1532   1.080       .  S
C1530     Br1536   1.919       .  S
C1537      C1538   1.426       .  A
C1537      C1542   1.442       .  A
C1538      C1539   1.427       .  A
C1538     Br1554   1.917       .  S
C1539      C1540   1.392       .  A
C1539      H1543   1.090       .  S
C1540      C1544   1.485       .  S
C1540      C1541   1.389       .  A
C1541      C1542   1.407       .  A
C1541     Br1553   1.916       .  S
C1542      H1545   1.045       .  S
C1544      C1546   1.403       .  A
C1544      C1550   1.405       .  A
C1546      C1547   1.405       .  A
C1546      H1551   1.084       .  S
C1547      C1548   1.417       .  A
C1547     Br1555   1.919       .  S
C1548      C1549   1.409       .  A
C1549      C1550   1.401       .  A
C1549      H1552   1.083       .  S
C1550     Br1556   1.915       .  S
C1557      C1558   1.491       .  A
C1557      C1562   1.456       .  A
C1558      C1559   1.421       .  A
C1558     Br1574   1.916       .  S
C1559      C1560   1.375       .  A
C1559      H1563   1.087       .  S
C1560      C1564   1.504       .  S
C1560      C1561   1.383       .  A
C1561      C1562   1.415       .  A
C1561     Br1573   1.925       .  S
C1562      H1565   1.053       .  S
C1564      C1566   1.406       .  A
C1564      C1570   1.413       .  A
C1566      C1567   1.408       .  A
C1566      H1571   1.082       .  S
C1567      C1568   1.419       .  A
C1567     Br1575   1.919       .  S
C1568      C1569   1.398       .  A
C1569      C1570   1.397       .  A
C1569      H1572   1.084       .  S
C1570     Br1576   1.898       .  S
C1577      C1578   1.435       .  A
C1577      C1582   1.440       .  A
C1578      C1579   1.422       .  A
C1578     Br1594   1.914       .  S
C1579      C1580   1.387       .  A
C1579      H1583   1.082       .  S
C1580      C1584   1.473       .  S
C1580      C1581   1.377       .  A
C1581      C1582   1.391       .  A
C1581     Br1593   1.929       .  S
C1582      H1585   1.043       .  S
C1584      C1586   1.399       .  A
C1584      C1590   1.408       .  A
C1586      C1587   1.397       .  A
C1586      H1591   1.084       .  S
C1587      C1588   1.416       .  A
C1587     Br1595   1.919       .  S
C1588      C1589   1.403       .  A
C1589      C1590   1.396       .  A
C1589      H1592   1.084       .  S
C1590     Br1596   1.914       .  S
C1597      C1598   1.478       .  A
C1597      C1602   1.427       .  A
C1598      C1599   1.422       .  A
C1598     Br1614   1.941       .  S
C1599      C1600   1.398       .  A
C1599      H1603   1.085       .  S
C1600      C1604   1.512       .  S
C1600      C1601   1.390       .  A
C1601      C1602   1.424       .  A
C1601     Br1613   1.920       .  S
C1602      H1605   1.008       .  S
C1604      C1606   1.411       .  A
C1604      C1610   1.416       .  A
C1606      C1607   1.416       .  A
C1606      H1611   1.083       .  S
C1607      C1608   1.415       .  A
C1607     Br1615   1.917       .  S
C1608      C1609   1.405       .  A
C1609      C1610   1.405       .  A
C1609      H1612   1.084   1_545  S
C1610     Br1616   1.913       .  S
C1617      C1618   1.497       .  A
C1617      C1622   1.426       .  A
C1618      C1619   1.420       .  A
C1618     Br1634   1.964       .  S
C1619      C1620   1.385       .  A
C1619      H1623   1.086       .  S
C1620      C1624   1.482       .  S
C1620      C1621   1.382       .  A
C1621      C1622   1.398       .  A
C1621     Br1633   1.920       .  S
C1622      H1625   1.029       .  S
C1624      C1626   1.398       .  A
C1624      C1630   1.409       .  A
C1626      C1627   1.395       .  A
C1626      H1631   1.084       .  S
C1627      C1628   1.417       .  A
C1627     Br1635   1.923       .  S
C1628      C1629   1.407       .  A
C1629      C1630   1.406       .  A
C1629      H1632   1.083   1_545  S
C1630     Br1636   1.915       .  S
C1637      C1638   1.407       .  A
C1637      C1642   1.396   1_565  A
C1638      C1639   1.403   1_565  A
C1638     Br1654   1.919       .  S
C1639      C1640   1.408       .  A
C1639      H1643   1.083       .  S
C1640      C1644   1.486       .  S
C1640      C1641   1.413       .  A
C1641      C1642   1.394       .  A
C1641     Br1653   1.911       .  S
C1642      H1645   1.084       .  S
C1644      C1646   1.407       .  A
C1644      C1650   1.396       .  A
C1646      C1647   1.412       .  A
C1646      H1651   1.086       .  S
C1647      C1648   1.431       .  A
C1647     Br1655   1.960       .  S
C1648      C1649   1.457       .  A
C1649      C1650   1.408       .  A
C1649      H1652   1.055       .  S
C1650     Br1656   1.921       .  S
C1657      C1658   1.421       .  A
C1657      C1662   1.410       .  A
C1658      C1659   1.398       .  A
C1658     Br1674   1.923       .  S
C1659      C1660   1.400       .  A
C1659      H1663   1.083       .  S
C1660      C1664   1.490       .  S
C1660      C1661   1.407       .  A
C1661      C1662   1.407       .  A
C1661     Br1673   1.910       .  S
C1662      H1665   1.083       .  S
C1664      C1666   1.380       .  A
C1664      C1670   1.394       .  A
C1666      C1667   1.405       .  A
C1666      H1671   1.085       .  S
C1667      C1668   1.478       .  A
C1667     Br1675   1.940       .  S
C1668      C1669   1.401       .  A
C1669      C1670   1.423       .  A
C1669      H1672   1.026       .  S
C1670     Br1676   1.927       .  S
C1677      C1678   1.410       .  A
C1677      C1682   1.403   1_565  A
C1678      C1679   1.395   1_565  A
C1678     Br1694   1.915       .  S
C1679      C1680   1.401       .  A
C1679      H1683   1.084       .  S
C1680      C1684   1.469       .  S
C1680      C1681   1.404       .  A
C1681      C1682   1.392       .  A
C1681     Br1693   1.910       .  S
C1682      H1685   1.084       .  S
C1684      C1686   1.370       .  A
C1684      C1690   1.381       .  A
C1686      C1687   1.396       .  A
C1686      H1691   1.088       .  S
C1687      C1688   1.481       .  A
C1687     Br1695   1.930       .  S
C1688      C1689   1.404       .  A
C1689      C1690   1.420       .  A
C1689      H1692   1.045       .  S
C1690     Br1696   1.933       .  S
C1697      C1698   1.486       .  A
C1697      C1702   1.440       .  A
C1698      C1699   1.420       .  A
C1698     Br1714   1.943       .  S
C1699      C1700   1.386       .  A
C1699      H1703   1.085       .  S
C1700      C1704   1.485       .  S
C1700      C1701   1.379       .  A
C1701      C1702   1.393       .  A
C1701     Br1713   1.927       .  S
C1702      H1705   1.059       .  S
C1704      C1706   1.403       .  A
C1704      C1710   1.407       .  A
C1706      C1707   1.399       .  A
C1706      H1711   1.082       .  S
C1707      C1708   1.415       .  A
C1707     Br1715   1.921       .  S
C1708      C1709   1.407       .  A
C1709      C1710   1.400       .  A
C1709      H1712   1.083   1_545  S
C1710     Br1716   1.918       .  S
C1717      C1718   1.444       .  A
C1717      C1722   1.463       .  A
C1718      C1719   1.428       .  A
C1718     Br1734   1.967       .  S
C1719      C1720   1.414       .  A
C1719      H1723   1.079       .  S
C1720      C1724   1.519       .  S
C1720      C1721   1.406       .  A
C1721      C1722   1.413       .  A
C1721     Br1733   1.920       .  S
C1722      H1725   1.068       .  S
C1724      C1726   1.411       .  A
C1724      C1730   1.423       .  A
C1726      C1727   1.408       .  A
C1726      H1731   1.083       .  S
C1727      C1728   1.411       .  A
C1727     Br1735   1.920       .  S
C1728      C1729   1.404       .  A
C1729      C1730   1.412       .  A
C1729      H1732   1.084       .  S
C1730     Br1736   1.917       .  S
C1737      C1738   1.480       .  A
C1737      C1742   1.433       .  A
C1738      C1739   1.426       .  A
C1738     Br1754   1.925       .  S
C1739      C1740   1.381       .  A
C1739      H1743   1.082       .  S
C1740      C1744   1.483       .  S
C1740      C1741   1.374       .  A
C1741      C1742   1.393       .  A
C1741     Br1753   1.937       .  S
C1742      H1745   1.048       .  S
C1744      C1746   1.398       .  A
C1744      C1750   1.409       .  A
C1746      C1747   1.401       .  A
C1746      H1751   1.083       .  S
C1747      C1748   1.423       .  A
C1747     Br1755   1.923       .  S
C1748      C1749   1.406       .  A
C1749      C1750   1.400       .  A
C1749      H1752   1.083       .  S
C1750     Br1756   1.913       .  S
C1757      C1758   1.417       .  A
C1757      C1762   1.408       .  A
C1758      C1759   1.413       .  A
C1758     Br1774   1.918   1_545  S
C1759      C1760   1.408       .  A
C1759      H1763   1.083       .  S
C1760      C1764   1.504       .  S
C1760      C1761   1.410       .  A
C1761      C1762   1.404       .  A
C1761     Br1773   1.913       .  S
C1762      H1765   1.083       .  S
C1764      C1766   1.383       .  A
C1764      C1770   1.382       .  A
C1766      C1767   1.424       .  A
C1766      H1771   1.086       .  S
C1767      C1768   1.497       .  A
C1767     Br1775   1.956       .  S
C1768      C1769   1.467       .  A
C1769      C1770   1.410       .  A
C1769      H1772   1.081       .  S
C1770     Br1776   1.926       .  S
C1777      C1778   1.409       .  A
C1777      C1782   1.393       .  A
C1778      C1779   1.407       .  A
C1778     Br1794   1.914       .  S
C1779      C1780   1.405       .  A
C1779      H1783   1.083       .  S
C1780      C1784   1.485       .  S
C1780      C1781   1.416       .  A
C1781      C1782   1.390       .  A
C1781     Br1793   1.918       .  S
C1782      H1785   1.085   1_545  S
C1784      C1786   1.398       .  A
C1784      C1790   1.380       .  A
C1786      C1787   1.430       .  A
C1786      H1791   1.085       .  S
C1787      C1788   1.428       .  A
C1787     Br1795   1.915       .  S
C1788      C1789   1.475       .  A
C1789      C1790   1.390       .  A
C1789      H1792   1.069       .  S
C1790     Br1796   1.924       .  S
C1797      C1798   1.413       .  A
C1797      C1802   1.404       .  A
C1798      C1799   1.399       .  A
C1798     Br1814   1.920       .  S
C1799      C1800   1.402       .  A
C1799      H1803   1.082       .  S
C1800      C1804   1.477       .  S
C1800      C1801   1.407       .  A
C1801      C1802   1.396       .  A
C1801     Br1813   1.917       .  S
C1802      H1805   1.084       .  S
C1804      C1806   1.374       .  A
C1804      C1810   1.369       .  A
C1806      C1807   1.423       .  A
C1806      H1811   1.087       .  S
C1807      C1808   1.484       .  A
C1807     Br1815   1.897       .  S
C1808      C1809   1.444       .  A
C1809      C1810   1.391       .  A
C1809      H1812   1.034       .  S
C1810     Br1816   1.933       .  S
C1817      C1818   1.471       .  A
C1817      C1822   1.473       .  A
C1818      C1819   1.420       .  A
C1818     Br1834   1.901       .  S
C1819      C1820   1.372       .  A
C1819      H1823   1.089       .  S
C1820      C1824   1.490       .  S
C1820      C1821   1.382       .  A
C1821      C1822   1.401       .  A
C1821     Br1833   1.923       .  S
C1822      H1825   1.077       .  S
C1824      C1826   1.405       .  A
C1824      C1830   1.420       .  A
C1826      C1827   1.401       .  A
C1826      H1831   1.083       .  S
C1827      C1828   1.410       .  A
C1827     Br1835   1.919       .  S
C1828      C1829   1.393       .  A
C1829      C1830   1.388       .  A
C1829      H1832   1.084       .  S
C1830     Br1836   1.918       .  S
C1837      C1838   1.474       .  A
C1837      C1842   1.429       .  A
C1838      C1839   1.398       .  A
C1838     Br1854   1.938       .  S
C1839      C1840   1.377       .  A
C1839      H1843   1.085       .  S
C1840      C1844   1.503       .  S
C1840      C1841   1.403       .  A
C1841      C1842   1.429       .  A
C1841     Br1853   1.907       .  S
C1842      H1845   1.039       .  S
C1844      C1846   1.406       .  A
C1844      C1850   1.414       .  A
C1846      C1847   1.402       .  A
C1846      H1851   1.078       .  S
C1847      C1848   1.408       .  A
C1847     Br1855   1.920       .  S
C1848      C1849   1.408       .  A
C1849      C1850   1.411       .  A
C1849      H1852   1.080       .  S
C1850     Br1856   1.918       .  S
C1857      C1858   1.488       .  A
C1857      C1862   1.456       .  A
C1858      C1859   1.400       .  A
C1858     Br1874   1.927       .  S
C1859      C1860   1.367       .  A
C1859      H1863   1.089       .  S
C1860      C1864   1.481       .  S
C1860      C1861   1.378       .  A
C1861      C1862   1.413       .  A
C1861     Br1873   1.919       .  S
C1862      H1865   1.047       .  S
C1864      C1866   1.403       .  A
C1864      C1870   1.408       .  A
C1866      C1867   1.399       .  A
C1866      H1871   1.084       .  S
C1867      C1868   1.417       .  A
C1867     Br1875   1.921       .  S
C1868      C1869   1.407       .  A
C1869      C1870   1.399       .  A
C1869      H1872   1.083       .  S
C1870     Br1876   1.914       .  S
C1877      C1878   1.474       .  A
C1877      C1882   1.425       .  A
C1878      C1879   1.397       .  A
C1878     Br1894   1.938       .  S
C1879      C1880   1.375       .  A
C1879      H1883   1.084       .  S
C1880      C1884   1.460       .  S
C1880      C1881   1.381       .  A
C1881      C1882   1.395       .  A
C1881     Br1893   1.926       .  S
C1882      H1885   1.072       .  S
C1884      C1886   1.395       .  A
C1884      C1890   1.401       .  A
C1886      C1887   1.394       .  A
C1886      H1891   1.084       .  S
C1887      C1888   1.419       .  A
C1887     Br1895   1.921       .  S
C1888      C1889   1.408       .  A
C1889      C1890   1.391       .  A
C1889      H1892   1.083       .  S
C1890     Br1896   1.918       .  S
C1897      C1898   1.419       .  A
C1897      C1902   1.407       .  A
C1898      C1899   1.403       .  A
C1898     Br1914   1.923       .  S
C1899      C1900   1.405       .  A
C1899      H1903   1.082       .  S
C1900      C1904   1.503       .  S
C1900      C1901   1.416       .  A
C1901      C1902   1.405       .  A
C1901     Br1913   1.919       .  S
C1902      H1905   1.083       .  S
C1904      C1906   1.389       .  A
C1904      C1910   1.409       .  A
C1906      C1907   1.396       .  A
C1906      H1911   1.085       .  S
C1907      C1908   1.460       .  A
C1907     Br1915   1.919       .  S
C1908      C1909   1.411       .  A
C1909      C1910   1.428       .  A
C1909      H1912   1.014       .  S
C1910     Br1916   1.907       .  S
C1917      C1918   1.409       .  A
C1917      C1922   1.403       .  A
C1918      C1919   1.400       .  A
C1918     Br1934   1.915       .  S
C1919      C1920   1.406       .  A
C1919      H1923   1.083       .  S
C1920      C1924   1.499       .  S
C1920      C1921   1.415       .  A
C1921      C1922   1.406       .  A
C1921     Br1933   1.916       .  S
C1922      H1925   1.084       .  S
C1924      C1926   1.397       .  A
C1924      C1930   1.413       .  A
C1926      C1927   1.399       .  A
C1926      H1931   1.085       .  S
C1927      C1928   1.453       .  A
C1927     Br1935   1.925       .  S
C1928      C1929   1.426       .  A
C1929      C1930   1.427       .  A
C1929      H1932   1.033       .  S
C1930     Br1936   1.912       .  S
C1937      C1938   1.401       .  A
C1937      C1942   1.398       .  A
C1938      C1939   1.394       .  A
C1938     Br1954   1.920       .  S
C1939      C1940   1.411       .  A
C1939      H1943   1.084       .  S
C1940      C1944   1.479       .  S
C1940      C1941   1.411       .  A
C1941      C1942   1.390       .  A
C1941     Br1953   1.913       .  S
C1942      H1945   1.085       .  S
C1944      C1946   1.383       .  A
C1944      C1950   1.385       .  A
C1946      C1947   1.399       .  A
C1946      H1951   1.086       .  S
C1947      C1948   1.467       .  A
C1947     Br1955   1.917       .  S
C1948      C1949   1.430       .  A
C1949      C1950   1.402       .  A
C1949      H1952   1.046       .  S
C1950     Br1956   1.924       .  S
C1957      C1958   1.433       .  A
C1957      C1962   1.460       .  A
C1958      C1959   1.444       .  A
C1958     Br1974   1.930       .  S
C1959      C1960   1.420       .  A
C1959      H1963   1.084       .  S
C1960      C1964   1.519       .  S
C1960      C1961   1.400       .  A
C1961      C1962   1.402       .  A
C1961     Br1973   1.932       .  S
C1962      H1965   1.061       .  S
C1964      C1966   1.411       .  A
C1964      C1970   1.423       .  A
C1966      C1967   1.409       .  A
C1966      H1971   1.084       .  S
C1967      C1968   1.414       .  A
C1967     Br1975   1.915       .  S
C1968      C1969   1.403       .  A
C1969      C1970   1.406       .  A
C1969      H1972   1.084       .  S
C1970     Br1976   1.914       .  S
C1977      C1978   1.446       .  A
C1977      C1982   1.456       .  A
C1978      C1979   1.441       .  A
C1978     Br1994   1.966       .  S
C1979      C1980   1.411       .  A
C1979      H1983   1.089       .  S
C1980      C1984   1.499       .  S
C1980      C1981   1.394       .  A
C1981      C1982   1.397       .  A
C1981     Br1993   1.932       .  S
C1982      H1985   1.055       .  S
C1984      C1986   1.413       .  A
C1984      C1990   1.409       .  A
C1986      C1987   1.403       .  A
C1986      H1991   1.078       .  S
C1987      C1988   1.402       .  A
C1987     Br1995   1.918       .  S
C1988      C1989   1.406       .  A
C1989      C1990   1.401       .  A
C1989      H1992   1.082       .  S
C1990     Br1996   1.921       .  S
C1997      C1998   1.415       .  A
C1997      C2002   1.404       .  A
C1998      C1999   1.398       .  A
C1998     Br2014   1.919       .  S
C1999      C2000   1.403       .  A
C1999      H2003   1.081       .  S
C2000      C2004   1.491       .  S
C2000      C2001   1.414       .  A
C2001      C2002   1.401       .  A
C2001     Br2013   1.914       .  S
C2002      H2005   1.084       .  S
C2004      C2006   1.402       .  A
C2004      C2010   1.404       .  A
C2006      C2007   1.415       .  A
C2006      H2011   1.084       .  S
C2007      C2008   1.440       .  A
C2007     Br2015   1.915       .  S
C2008      C2009   1.452       .  A
C2009      C2010   1.414       .  A
C2009      H2012   1.048       .  S
C2010     Br2016   1.921       .  S
C2017      C2018   1.483       .  A
C2017      C2022   1.413       .  A
C2018      C2019   1.395       .  A
C2018     Br2034   1.943       .  S
C2019      C2020   1.376       .  A
C2019      H2023   1.086       .  S
C2020      C2024   1.471       .  S
C2020      C2021   1.386       .  A
C2021      C2022   1.411       .  A
C2021     Br2033   1.923       .  S
C2022      H2025   1.015       .  S
C2024      C2026   1.403       .  A
C2024      C2030   1.407       .  A
C2026      C2027   1.387       .  A
C2026      H2031   1.084       .  S
C2027      C2028   1.408       .  A
C2027     Br2035   1.922       .  S
C2028      C2029   1.409       .  A
C2029      C2030   1.398       .  A
C2029      H2032   1.083       .  S
C2030     Br2036   1.921       .  S
C2037      C2038   1.406       .  A
C2037      C2042   1.403       .  A
C2038      C2039   1.396       .  A
C2038     Br2054   1.919       .  S
C2039      C2040   1.405       .  A
C2039      H2043   1.082       .  S
C2040      C2044   1.485       .  S
C2040      C2041   1.410       .  A
C2041      C2042   1.400       .  A
C2041     Br2053   1.920       .  S
C2042      H2045   1.082       .  S
C2044      C2046   1.368       .  A
C2044      C2050   1.395       .  A
C2046      C2047   1.386       .  A
C2046      H2051   1.086       .  S
C2047      C2048   1.487       .  A
C2047     Br2055   1.943       .  S
C2048      C2049   1.417       .  A
C2049      C2050   1.441       .  A
C2049      H2052   1.054       .  S
C2050     Br2056   1.927       .  S
C2057      C2058   1.417       .  A
C2057      C2062   1.408       .  A
C2058      C2059   1.406       .  A
C2058     Br2074   1.920       .  S
C2059      C2060   1.406       .  A
C2059      H2063   1.084       .  S
C2060      C2064   1.491       .  S
C2060      C2061   1.408       .  A
C2061      C2062   1.398       .  A
C2061     Br2073   1.919       .  S
C2062      H2065   1.083       .  S
C2064      C2066   1.387       .  A
C2064      C2070   1.394       .  A
C2066      C2067   1.402       .  A
C2066      H2071   1.085       .  S
C2067      C2068   1.467       .  A
C2067     Br2075   1.927       .  S
C2068      C2069   1.409       .  A
C2069      C2070   1.426       .  A
C2069      H2072   1.030       .  S
C2070     Br2076   1.931       .  S
C2077      C2078   1.499       .  A
C2077      C2082   1.434       .  A
C2078      C2079   1.416       .  A
C2078     Br2094   1.946       .  S
C2079      C2080   1.370       .  A
C2079      H2083   1.087       .  S
C2080      C2084   1.479       .  S
C2080      C2081   1.376       .  A
C2081      C2082   1.410       .  A
C2081     Br2093   1.929       .  S
C2082      H2085   1.018       .  S
C2084      C2086   1.400       .  A
C2084      C2090   1.406       .  A
C2086      C2087   1.401   1_554  A
C2086      H2091   1.084       .  S
C2087      C2088   1.417       .  A
C2087     Br2095   1.921       .  S
C2088      C2089   1.403   1_556  A
C2089      C2090   1.395       .  A
C2089      H2092   1.083       .  S
C2090     Br2096   1.912       .  S
C2097      C2098   1.418   1_556  A
C2097      C2102   1.408   1_556  A
C2098      C2099   1.399       .  A
C2098     Br2114   1.922   1_554  S
C2099      C2100   1.401       .  A
C2099      H2103   1.079       .  S
C2100      C2104   1.488       .  S
C2100      C2101   1.410       .  A
C2101      C2102   1.402       .  A
C2101     Br2113   1.915       .  S
C2102      H2105   1.083       .  S
C2104      C2106   1.398       .  A
C2104      C2110   1.397       .  A
C2106      C2107   1.420       .  A
C2106      H2111   1.082       .  S
C2107      C2108   1.425       .  A
C2107     Br2115   1.936       .  S
C2108      C2109   1.455       .  A
C2109      C2110   1.416       .  A
C2109      H2112   1.031       .  S
C2110     Br2116   1.923       .  S
C2117      C2118   1.413   1_556  A
C2117      C2122   1.406   1_556  A
C2118      C2119   1.394       .  A
C2118     Br2134   1.923   1_554  S
C2119      C2120   1.403       .  A
C2119      H2123   1.081       .  S
C2120      C2124   1.481       .  S
C2120      C2121   1.405       .  A
C2121      C2122   1.394       .  A
C2121     Br2133   1.903       .  S
C2122      H2125   1.083   1_554  S
C2124      C2126   1.371       .  A
C2124      C2130   1.387       .  A
C2126      C2127   1.407       .  A
C2126      H2131   1.088       .  S
C2127      C2128   1.501       .  A
C2127     Br2135   1.949       .  S
C2128      C2129   1.404       .  A
C2129      C2130   1.414       .  A
C2129      H2132   1.022       .  S
C2130     Br2136   1.917       .  S
C2137      C2138   1.403       .  A
C2137      C2142   1.391   1_556  A
C2138      C2139   1.402   1_556  A
C2138     Br2154   1.918       .  S
C2139      C2140   1.411       .  A
C2139      H2143   1.082       .  S
C2140      C2144   1.491       .  S
C2140      C2141   1.417       .  A
C2141      C2142   1.388       .  A
C2141     Br2153   1.908       .  S
C2142      H2145   1.085       .  S
C2144      C2146   1.382       .  A
C2144      C2150   1.408       .  A
C2146      C2147   1.398       .  A
C2146      H2151   1.085       .  S
C2147      C2148   1.477       .  A
C2147     Br2155   1.933       .  S
C2148      C2149   1.394       .  A
C2149      C2150   1.426       .  A
C2149      H2152   1.044       .  S
C2150     Br2156   1.904       .  S
C2157      C2158   1.487       .  A
C2157      C2162   1.452       .  A
C2158      C2159   1.416       .  A
C2158     Br2174   1.924       .  S
C2159      C2160   1.373       .  A
C2159      H2163   1.089       .  S
C2160      C2164   1.495       .  S
C2160      C2161   1.384       .  A
C2161      C2162   1.420       .  A
C2161     Br2173   1.925       .  S
C2162      H2165   1.040       .  S
C2164      C2166   1.404       .  A
C2164      C2170   1.410       .  A
C2166      C2167   1.412       .  A
C2166      H2171   1.083       .  S
C2167      C2168   1.421       .  A
C2167     Br2175   1.919       .  S
C2168      C2169   1.406       .  A
C2169      C2170   1.397       .  A
C2169      H2172   1.083       .  S
C2170     Br2176   1.918       .  S
C2177      C2178   1.478       .  A
C2177      C2182   1.412       .  A
C2178      C2179   1.407       .  A
C2178     Br2194   1.936       .  S
C2179      C2180   1.378       .  A
C2179      H2183   1.086       .  S
C2180      C2184   1.486       .  S
C2180      C2181   1.394       .  A
C2181      C2182   1.424       .  A
C2181     Br2193   1.917       .  S
C2182      H2185   1.033       .  S
C2184      C2186   1.403       .  A
C2184      C2190   1.405       .  A
C2186      C2187   1.393       .  A
C2186      H2191   1.077       .  S
C2187      C2188   1.411   1_554  A
C2187     Br2195   1.924       .  S
C2188      C2189   1.408       .  A
C2189      C2190   1.398   1_556  A
C2189      H2192   1.083       .  S
C2190     Br2196   1.911       .  S
C2197      C2198   1.476       .  A
C2197      C2202   1.415       .  A
C2198      C2199   1.388       .  A
C2198     Br2214   1.939       .  S
C2199      C2200   1.373       .  A
C2199      H2203   1.087       .  S
C2200      C2204   1.484       .  S
C2200      C2201   1.397       .  A
C2201      C2202   1.436       .  A
C2201     Br2213   1.909       .  S
C2202      H2205   1.053       .  S
C2204      C2206   1.406       .  A
C2204      C2210   1.415       .  A
C2206      C2207   1.401       .  A
C2206      H2211   1.084       .  S
C2207      C2208   1.406       .  A
C2207     Br2215   1.918       .  S
C2208      C2209   1.390       .  A
C2209      C2210   1.389       .  A
C2209      H2212   1.085       .  S
C2210     Br2216   1.904       .  S
C2217      C2218   1.417       .  A
C2217      C2222   1.402       .  A
C2218      C2219   1.410       .  A
C2218     Br2234   1.920   1_554  S
C2219      C2220   1.412       .  A
C2219      H2223   1.084       .  S
C2220      C2224   1.520       .  S
C2220      C2221   1.429       .  A
C2221      C2222   1.403       .  A
C2221     Br2233   1.923       .  S
C2222      H2225   1.084       .  S
C2224      C2226   1.391       .  A
C2224      C2230   1.389       .  A
C2226      C2227   1.420       .  A
C2226      H2231   1.084       .  S
C2227      C2228   1.469       .  A
C2227     Br2235   1.912       .  S
C2228      C2229   1.454       .  A
C2229      C2230   1.414       .  A
C2229      H2232   1.055       .  S
C2230     Br2236   1.928       .  S
C2237      C2238   1.488       .  A
C2237      C2242   1.416       .  A
C2238      C2239   1.405       .  A
C2238     Br2254   1.949       .  S
C2239      C2240   1.381       .  A
C2239      H2243   1.086       .  S
C2240      C2244   1.493       .  S
C2240      C2241   1.392       .  A
C2241      C2242   1.410       .  A
C2241     Br2253   1.917       .  S
C2242      H2245   1.070       .  S
C2244      C2246   1.403       .  A
C2244      C2250   1.410       .  A
C2246      C2247   1.395       .  A
C2246      H2251   1.075       .  S
C2247      C2248   1.413       .  A
C2247     Br2255   1.924   1_554  S
C2248      C2249   1.407       .  A
C2249      C2250   1.404       .  A
C2249      H2252   1.083       .  S
C2250     Br2256   1.914       .  S
C2257      C2258   1.504       .  A
C2257      C2262   1.458       .  A
C2258      C2259   1.406       .  A
C2258     Br2274   1.935       .  S
C2259      C2260   1.365       .  A
C2259      H2263   1.087       .  S
C2260      C2264   1.468       .  S
C2260      C2261   1.369       .  A
C2261      C2262   1.399       .  A
C2261     Br2273   1.931       .  S
C2262      H2265   1.046       .  S
C2264      C2266   1.402       .  A
C2264      C2270   1.405       .  A
C2266      C2267   1.397       .  A
C2266      H2271   1.083       .  S
C2267      C2268   1.412       .  A
C2267     Br2275   1.919       .  S
C2268      C2269   1.398       .  A
C2269      C2270   1.381       .  A
C2269      H2272   1.084       .  S
C2270     Br2276   1.905       .  S
C2277      C2278   1.451       .  A
C2277      C2282   1.478       .  A
C2278      C2279   1.412       .  A
C2278     Br2294   1.862       .  S
C2279      C2280   1.385       .  A
C2279      H2283   1.086       .  S
C2280      C2284   1.490       .  S
C2280      C2281   1.387       .  A
C2281      C2282   1.397       .  A
C2281     Br2293   1.921       .  S
C2282      H2285   1.083       .  S
C2284      C2286   1.408       .  A
C2284      C2290   1.416       .  A
C2286      C2287   1.404   1_554  A
C2286      H2291   1.083   1_554  S
C2287      C2288   1.406       .  A
C2287     Br2295   1.918       .  S
C2288      C2289   1.397   1_556  A
C2289      C2290   1.393       .  A
C2289      H2292   1.084       .  S
C2290     Br2296   1.919       .  S
