geometry optimzed in LAMMPS
_audit_creation_date              2020-11-30 
_audit_creation_method            'lammps2cif' 
_symmetry_space_group_name_H-M    'P1' 
_symmetry_Int_Tables_number       1 
_symmetry_cell_setting            triclinic 
loop_ 
_symmetry_equiv_pos_as_xyz 
  x,y,z 
_cell_length_a                    30.54666957 
_cell_length_b                    32.22042954301455 
_cell_length_c                    31.58997321278589 
_cell_angle_alpha                 90.02641705330409 
_cell_angle_beta                  89.85163993223684 
_cell_angle_gamma                 89.87592930704034 
loop_ 
_atom_site_label 
_atom_site_type_symbol 
_atom_site_fract_x 
_atom_site_fract_y 
_atom_site_fract_z 
_atom_site_charge 
O1          O  0.58454061  0.94658513  0.47724081    -0.80500
O2          O  0.42715466  0.06008852  0.47850299    -0.80500
O3          O  0.48933210  0.96414249  0.43168602    -0.80500
O4          O  0.52876771  0.04093883  0.43570430    -0.80400
O5          O  0.42436499  0.97485497  0.45850693    -0.80500
O6          O  0.59078087  0.03034148  0.46790771    -0.80500
O7          O  0.47955980  0.10621759  0.46343342    -0.80500
O8          O  0.53654427  0.89800136  0.45755062    -0.80500
C9          C  0.57477161  0.91352105  0.45569972     1.09200
C10         C  0.43977939  0.09476415  0.46140489     1.09100
C11         C  0.44820958  0.96422005  0.42744145     1.09300
C12         C  0.57011670  0.03887570  0.43429364     1.09100
O13         O  0.57056884  0.04287905  0.55779755    -0.80500
O14         O  0.43488772  0.95545009  0.54767663    -0.80500
O15         O  0.53084240  0.91438638  0.54033948    -0.80500
O16         O  0.47842124  0.08351485  0.54534991    -0.80400
O17         O  0.43685924  0.03322363  0.56687711    -0.80500
O18         O  0.56933057  0.96293254  0.56953154    -0.80500
O19         O  0.55722529  0.08909862  0.50980203    -0.80400
O20         O  0.45576399  0.91157271  0.49949639    -0.80500
Co21       Co  0.57322885  0.99617234  0.51842968     1.51500
Co22       Co  0.43672928  0.00520201  0.51292881     1.51700
Co23       Co  0.51156569  0.94368633  0.48657025     1.51600
Co24       Co  0.50207027  0.05833192  0.49044966     1.51500
O25         O  0.50523543  0.00027128  0.51289555    -1.42400
C26         C  0.57659046  0.07883948  0.54392191     1.09200
C27         C  0.43394850  0.91946648  0.53287505     1.09300
C28         C  0.55478505  0.92686941  0.57019370     1.09200
C29         C  0.45172557  0.06882250  0.57211189     1.09200
O30         O  0.96635685  0.60315132  0.46092340    -0.80500
O31         O  0.93547293  0.44760581  0.54867736    -0.80500
O32         O  0.98183591  0.46121298  0.41186309    -0.80500
O33         O  0.97494324  0.55059966  0.58242015    -0.80400
O34         O  0.93709704  0.45282069  0.46322105    -0.80500
O35         O  0.93451760  0.55436397  0.52481651    -0.80500
O36         O  0.98215222  0.46719435  0.59784300    -0.80500
O37         O  0.95396433  0.54129759  0.43348737    -0.80500
C38         C  0.94655040  0.58079235  0.43401523     1.09200
C39         C  0.94678085  0.44962844  0.58699296     1.09100
C40         C  0.94822624  0.44269237  0.42646564     1.09300
C41         C  0.94071864  0.56388200  0.56316926     1.09100
O42         O  0.01818716  0.59408500  0.53277374    -0.80500
O43         O  0.02704482  0.41849614  0.46243587    -0.80500
O44         O  0.03374439  0.53444378  0.39516635    -0.80500
O45         O  0.06787354  0.46471908  0.56076286    -0.80400
O46         O  0.02186916  0.41336208  0.54857819    -0.80500
O47         O  0.04565709  0.56526382  0.45630277    -0.80500
O48         O  0.06520595  0.54665373  0.54645522    -0.80400
O49         O  0.06488666  0.47550147  0.45160419    -0.80500
Co50       Co  0.98834841  0.55587883  0.49013531     1.51500
Co51       Co  0.98052191  0.43674434  0.50555838     1.51700
Co52       Co  0.01116991  0.50852122  0.44591922     1.51600
Co53       Co  0.02201009  0.50699937  0.56817979     1.51500
O54         O  0.00043612  0.49676117  0.50837662    -1.42400
C55         C  0.05315997  0.58337731  0.55128670     1.09200
C56         C  0.06086878  0.43670457  0.44718451     1.09300
C57         C  0.05238051  0.56318535  0.41610443     1.09200
C58         C  0.05834972  0.42671581  0.56189822     1.09200
O59         O  0.40540391  0.48581055  0.95067944    -0.80500
O60         O  0.56790339  0.44440991  0.03942824    -0.80500
O61         O  0.54082912  0.43282375  0.94109034    -0.80500
O62         O  0.47429425  0.43070397  0.04179190    -0.80400
O63         O  0.59620225  0.46925517  0.96295909    -0.80500
O64         O  0.41456421  0.46909630  0.03491182    -0.80500
O65         O  0.53510852  0.45652822  0.09991583    -0.80500
O66         O  0.45436048  0.43989252  0.93078810    -0.80500
C67         C  0.41498894  0.45088523  0.93460263     1.09200
C68         C  0.56343438  0.43629629  0.07923740     1.09100
C69         C  0.58156795  0.43714084  0.94442284     1.09300
C70         C  0.43312333  0.43461011  0.04485777     1.09100
O71         O  0.45629073  0.55368908  0.04272531    -0.80500
O72         O  0.55943884  0.55225304  0.97371974    -0.80500
O73         O  0.46374158  0.52576674  0.90304436    -0.80500
O74         O  0.54646691  0.53330084  0.06300810    -0.80400
O75         O  0.61089648  0.51908556  0.03488273    -0.80500
O76         O  0.45069273  0.56339780  0.95996142    -0.80500
O77         O  0.46391466  0.50515864  0.08788962    -0.80400
O78         O  0.55387779  0.51869153  0.91378092    -0.80500
Co79       Co  0.43554393  0.51726601  0.99710035     1.51500
Co80       Co  0.55939651  0.50023734  0.00661852     1.51700
Co81       Co  0.50295999  0.47968498  0.92610550     1.51600
Co82       Co  0.51049863  0.47993662  0.04971220     1.51500
O83         O  0.49630267  0.49354749  0.98891117    -1.42400
C84         C  0.44923772  0.54075774  0.07934355     1.09200
C85         C  0.56925568  0.54900968  0.93508905     1.09300
C86         C  0.44995651  0.55910493  0.92042693     1.09200
C87         C  0.58768641  0.54178419  0.05905383     1.09200
C88         C  0.63888482  0.85641611  0.79237524     0.02800
C89         C  0.66894251  0.82355822  0.79207964    -0.13300
C90         C  0.67804249  0.80211409  0.75445046     0.00300
C91         C  0.65574894  0.81296146  0.71716592    -0.11900
C92         C  0.62445592  0.84506430  0.71731702     0.02800
C93         C  0.61681298  0.86709950  0.75501107    -0.11300
H94         H  0.68685557  0.81612590  0.82067653     0.08400
H95         H  0.66309870  0.79675629  0.68791536     0.05900
H96         H  0.59427333  0.89313669  0.75512200     0.05800
C97         C  0.75261594  0.71671961  0.78654729     0.79900
N98         N  0.78202687  0.71677155  0.75382766    -0.78400
C99         C  0.77701874  0.74404988  0.72101314     0.82400
N100        N  0.74265767  0.77085057  0.72127022    -0.78300
C101        C  0.71341285  0.77096423  0.75356730     0.82400
N102        N  0.71859500  0.74398802  0.78612980    -0.80100
C103        C  0.84508474  0.78655158  0.63016572     0.02800
C104        C  0.81821344  0.78429462  0.66616047    -0.13300
C105        C  0.80823784  0.74564624  0.68492940     0.00300
C106        C  0.82683277  0.70917891  0.66796327    -0.11900
C107        C  0.85324643  0.71085220  0.63132641     0.02800
C108        C  0.86015222  0.74960031  0.61165472    -0.11300
H109        H  0.80576309  0.81274810  0.68003832     0.08400
H110        H  0.82041995  0.67956084  0.68294708     0.05900
H111        H  0.87826952  0.75135430  0.58225708     0.05800
C112        C  0.79878337  0.65379354  0.87875455     0.02800
C113        C  0.76023491  0.63462405  0.89352910    -0.13300
C114        C  0.72006668  0.64108038  0.87295052     0.00300
C115        C  0.71831426  0.66774254  0.83792515    -0.11900
C116        C  0.75633255  0.68725721  0.82251422     0.02800
C117        C  0.79654742  0.68004130  0.84301641    -0.11300
H118        H  0.76171240  0.61372675  0.92037037     0.08400
H119        H  0.68723301  0.67284070  0.82225467     0.05900
H120        H  0.82580658  0.69550935  0.83180404     0.05800
C121        C  0.28344311  0.22092537  0.75477545     0.79900
N122        N  0.25488861  0.22301578  0.72213093    -0.78400
C123        C  0.22081678  0.25003260  0.72334494     0.82400
N124        N  0.21509885  0.27505157  0.75767786    -0.78300
C125        C  0.24355384  0.27291845  0.79065644     0.82400
N126        N  0.27761872  0.24583894  0.78901640    -0.80100
C127        C  0.27059407  0.34938499  0.87718904     0.02800
C128        C  0.27463229  0.32278374  0.84233933    -0.13300
C129        C  0.23841115  0.30014629  0.82784012     0.00300
C130        C  0.19803721  0.30347480  0.84921468    -0.11900
C131        C  0.19409264  0.32917194  0.88510439     0.02800
C132        C  0.23070912  0.35165994  0.89889309    -0.11300
H133        H  0.30564684  0.32070513  0.82569965     0.08400
H134        H  0.17027162  0.28552945  0.83849265     0.05900
H135        H  0.22789338  0.37187037  0.92622410     0.05800
C136        C  0.35364652  0.13266968  0.79229031     0.02800
C137        C  0.37676406  0.12219744  0.75534033    -0.13300
C138        C  0.37024751  0.14476965  0.71791693     0.00300
C139        C  0.34021718  0.17788031  0.71770843    -0.11900
C140        C  0.31767138  0.18886260  0.75494440     0.02800
C141        C  0.32515247  0.16657430  0.79220558    -0.11300
H142        H  0.39901067  0.09593575  0.75547996     0.08400
H143        H  0.33392207  0.19451159  0.68853107     0.05900
H144        H  0.30737739  0.17442365  0.82088325     0.05800
C145        C  0.15091782  0.29149875  0.63464402     0.02800
C146        C  0.13500553  0.25458912  0.61712467    -0.13300
C147        C  0.14655291  0.21617783  0.63441296     0.00300
C148        C  0.17496674  0.21469891  0.66914242    -0.11900
C149        C  0.19037831  0.25167415  0.68749309     0.02800
C150        C  0.17775351  0.29005031  0.67049348    -0.11300
H151        H  0.11274609  0.25578411  0.59045893     0.08400
H152        H  0.18465341  0.18491822  0.68206861     0.05900
H153        H  0.18939417  0.31866418  0.68454402     0.05800
O154        O  0.54083425  0.95664842  0.92100733    -0.80500
O155        O  0.43713386  0.97333698  0.06943411    -0.80500
O156        O  0.56431169  0.93945975  0.01736578    -0.80500
O157        O  0.44535122  0.92862642  0.97616604    -0.80400
O158        O  0.52082754  0.94445660  0.07109206    -0.80500
O159        O  0.45515030  0.95783514  0.91454792    -0.80500
O160        O  0.38187405  0.96457733  0.02450550    -0.80500
O161        O  0.59615510  0.98478985  0.95330717    -0.80500
C162        C  0.58121608  0.95951021  0.92640311     1.09200
C163        C  0.39825006  0.96002519  0.06109874     1.09100
C164        C  0.54840760  0.92371174  0.05033153     1.09300
C165        C  0.44480623  0.92615977  0.93617011     1.09100
O166        O  0.45713946  0.04732132  0.92977479    -0.80500
O167        O  0.55704315  0.02846492  0.07257163    -0.80500
O168        O  0.56405209  0.05956074  0.99029072    -0.80500
O169        O  0.41691591  0.04082207  0.02364287    -0.80400
O170        O  0.47375523  0.05794965  0.06019781    -0.80500
O171        O  0.54510027  0.04723205  0.92425854    -0.80500
O172        O  0.40350663  0.00698873  0.94967670    -0.80400
O173        O  0.61499748  0.00687246  0.03618184    -0.80500
Co174      Co  0.49957935  0.00248568  0.92699833     1.51500
Co175      Co  0.49734478  0.00118721  0.06019976     1.51700
Co176      Co  0.56146806  0.99961926  0.00557243     1.51600
Co177      Co  0.43529042  0.98447984  0.00125521     1.51500
O178        O  0.49819437  0.99864970  0.99142621    -1.42400
C179        C  0.41706811  0.03907280  0.93014166     1.09200
C180        C  0.59885344  0.02702584  0.06704352     1.09300
C181        C  0.56344080  0.07009927  0.95165655     1.09200
C182        C  0.43587664  0.06642071  0.04754784     1.09200
C183        C  0.28614595  0.74598680  0.77115405     0.79900
N184        N  0.28663016  0.77324098  0.73794463    -0.78400
C185        C  0.25382822  0.77256728  0.70866973     0.82400
N186        N  0.22114596  0.74464675  0.71285081    -0.78300
C187        C  0.22019960  0.71708535  0.74516234     0.82400
N188        N  0.25297987  0.71766833  0.77432151    -0.80100
C189        C  0.37483347  0.70540090  0.84465833     0.02800
C190        C  0.39037147  0.74225924  0.86269957    -0.13300
C191        C  0.37264259  0.78077809  0.85116863     0.00300
C192        C  0.33941565  0.78234604  0.82016543    -0.11900
C193        C  0.32255856  0.74534457  0.80248818     0.02800
C194        C  0.34023632  0.70700490  0.81549492    -0.11300
H195        H  0.41600400  0.74091404  0.88634689     0.08400
H196        H  0.32583806  0.81206322  0.81091036     0.05900
H197        H  0.32759916  0.67834204  0.80240879     0.05800
C198        C  0.21124684  0.83665843  0.61655559     0.02800
C199        C  0.21306965  0.81320106  0.65398378    -0.13300
C200        C  0.25344979  0.79999009  0.67091646     0.00300
C201        C  0.29232027  0.81025270  0.64956273    -0.11900
C202        C  0.29107559  0.83313874  0.61156199     0.02800
C203        C  0.25051268  0.84686353  0.59583979    -0.11300
H204        H  0.18281551  0.80542428  0.67010474     0.08400
H205        H  0.32351582  0.79998924  0.66208131     0.05900
H206        H  0.24969767  0.86679952  0.56823487     0.05800
C207        C  0.13726065  0.63577227  0.78192763     0.02800
C208        C  0.17110213  0.66548056  0.78316460    -0.13300
C209        C  0.18483520  0.68542414  0.74571650     0.00300
C210        C  0.16356908  0.67593179  0.70738649    -0.11900
C211        C  0.13013234  0.64634698  0.70553890     0.02800
C212        C  0.11807054  0.62558717  0.74291234    -0.11300
H213        H  0.18621021  0.67326072  0.81311348     0.08400
H214        H  0.17309381  0.69162638  0.67848441     0.05900
H215        H  0.09304026  0.60183021  0.74190606     0.05800
C216        C  0.75165498  0.26494915  0.22792978     0.79900
N217        N  0.78127264  0.27029057  0.25973917    -0.78400
C218        C  0.78555547  0.24109840  0.29065378     0.82400
N219        N  0.76017248  0.20634437  0.28904656    -0.78300
C220        C  0.73104793  0.20032254  0.25722221     0.82400
N221        N  0.72699588  0.22979266  0.22667896    -0.80100
C222        C  0.87132796  0.28530830  0.36750889     0.02800
C223        C  0.88335367  0.24827725  0.38878411    -0.13300
C224        C  0.86382990  0.21000441  0.37810422     0.00300
C225        C  0.83210091  0.20898710  0.34635866    -0.11900
C226        C  0.81948361  0.24496624  0.32443091     0.02800
C227        C  0.83965466  0.28313712  0.33492547    -0.11300
H228        H  0.90798223  0.24923542  0.41337452     0.08400
H229        H  0.81768510  0.17930858  0.33830725     0.05900
H230        H  0.82999774  0.31126851  0.31864224     0.05800
C231        C  0.78152754  0.34058543  0.14042182     0.02800
C232        C  0.73999594  0.35195064  0.12588158    -0.13300
C233        C  0.70209510  0.33587467  0.14468122     0.00300
C234        C  0.70595115  0.30756547  0.17832328    -0.11900
C235        C  0.74758337  0.29601502  0.19359783     0.02800
C236        C  0.78529333  0.31330346  0.17491513    -0.11300
H237        H  0.73714424  0.37414210  0.10021770     0.08400
H238        H  0.67666708  0.29507843  0.19291998     0.05900
H239        H  0.81748189  0.30459883  0.18625303     0.05800
C240        C  0.67947809  0.10279102  0.21154511     0.02800
C241        C  0.70068675  0.14131525  0.21464028    -0.13300
C242        C  0.70662658  0.16050758  0.25421596     0.00700
C243        C  0.68915768  0.14147474  0.29073851    -0.11900
C244        C  0.66762217  0.10274342  0.28837537     0.02800
C245        C  0.66390720  0.08351848  0.24847701    -0.11300
H246        H  0.71240215  0.15635946  0.18611274     0.08400
H247        H  0.69029863  0.15817157  0.32037951     0.05900
H248        H  0.64660389  0.05432811  0.24570168     0.05800
O249        O  0.94912032  0.54900189  0.95394456    -0.80500
O250        O  0.06797162  0.44443705  0.96233796    -0.80500
O251        O  0.04271103  0.57739614  0.96231560    -0.80500
O252        O  0.97038516  0.41793558  0.97513763    -0.80400
O253        O  0.07779367  0.52267161  0.94143704    -0.80500
O254        O  0.94151298  0.46987793  0.94255564    -0.80500
O255        O  0.04337290  0.40628917  0.01396719    -0.80500
O256        O  0.96718314  0.59432355  0.00110134    -0.80500
C257        C  0.94609422  0.58535485  0.96768008     1.09200
C258        C  0.06454761  0.40945802  0.97946905     1.09100
C259        C  0.06562048  0.55914899  0.93457200     1.09300
C260        C  0.95103490  0.43232029  0.94324314     1.09100
O261        O  0.91863767  0.45367876  0.03273470    -0.80500
O262        O  0.09227244  0.54721539  0.03133456    -0.80500
O263        O  0.99169063  0.54515547  0.07419308    -0.80500
O264        O  0.02060710  0.46504208  0.08109595    -0.80400
O265        O  0.08504675  0.46387196  0.05112083    -0.80500
O266        O  0.92791418  0.53844659  0.04357964    -0.80500
O267        O  0.96393271  0.40462520  0.05754155    -0.80400
O268        O  0.04934622  0.60233582  0.04348007    -0.80500
Co269      Co  0.93962567  0.50276905  0.99310663     1.51500
Co270      Co  0.07535629  0.49471456  0.99622881     1.51700
Co271      Co  0.01874410  0.55739843  0.01870057     1.51600
Co272      Co  0.99377604  0.44611092  0.02766974     1.51500
O273        O  0.00731227  0.49943430  0.99893315    -1.42400
C274        C  0.92590799  0.42033103  0.05503487     1.09200
C275        C  0.08580271  0.58359952  0.04798021     1.09300
C276        C  0.95031673  0.54758955  0.07587584     1.09200
C277        C  0.06140286  0.45913973  0.08392938     1.09200
C278        C  0.22165077  0.13680803  0.35059574     0.02800
C279        C  0.21994338  0.16578287  0.31723741    -0.13300
C280        C  0.25632356  0.19114958  0.30809295     0.00300
C281        C  0.29412759  0.18811127  0.33332308    -0.11900
C282        C  0.29535090  0.16074153  0.36805888     0.02800
C283        C  0.25919173  0.13520373  0.37592846    -0.11300
H284        H  0.19058024  0.16840694  0.29824710     0.08400
H285        H  0.32201625  0.20780725  0.32666809     0.05900
H286        H  0.26034642  0.11360005  0.40217420     0.05800
C287        C  0.25350395  0.22305625  0.27450338     0.79900
N288        N  0.22460389  0.25484219  0.27901833    -0.78400
C289        C  0.22202937  0.28545256  0.24953089     0.82400
N290        N  0.24884947  0.28390323  0.21502279    -0.78300
C291        C  0.27800246  0.25214961  0.20980951     0.82400
N292        N  0.28033771  0.22182938  0.23993326    -0.80100
C293        C  0.14602207  0.37706059  0.22691003     0.02800
C294        C  0.13283010  0.38732870  0.26821204    -0.13300
C295        C  0.14755803  0.36454582  0.30317900     0.00300
C296        C  0.17656344  0.33127133  0.29689919    -0.11900
C297        C  0.19098842  0.32065901  0.25577991     0.02800
C298        C  0.17516681  0.34357452  0.22091144    -0.11300
H299        H  0.11028194  0.41292726  0.27318677     0.08400
H300        H  0.18827801  0.31413495  0.32412454     0.05900
H301        H  0.18419820  0.33434123  0.18910941     0.05800
C302        C  0.34992702  0.28921508  0.11846970     0.02800
C303        C  0.32067924  0.28913129  0.15291978    -0.13300
C304        C  0.30763822  0.25147090  0.17206069     0.00300
C305        C  0.32406881  0.21367235  0.15551209    -0.11900
C306        C  0.35243172  0.21355783  0.12018959     0.02800
C307        C  0.36473631  0.25135971  0.10184210    -0.11300
H308        H  0.30975163  0.31849382  0.16597849     0.08400
H309        H  0.31511472  0.18447957  0.17012214     0.05900
H310        H  0.38757297  0.25138704  0.07549778     0.05800
C311        C  0.79880449  0.27112240  0.76157968     0.79900
N312        N  0.79451312  0.24406964  0.72928066    -0.78400
C313        C  0.76150051  0.21611818  0.72858376     0.82400
N314        N  0.73163774  0.21551553  0.76104450    -0.78300
C315        C  0.73572053  0.24293472  0.79400989     0.82400
N316        N  0.76950827  0.27041134  0.79388249    -0.80100
C317        C  0.88436124  0.34682384  0.72235779     0.02800
C318        C  0.84941471  0.31859845  0.72286352    -0.13300
C319        C  0.83539367  0.30068804  0.76125337     0.00300
C320        C  0.85538484  0.31243788  0.79928719    -0.11900
C321        C  0.89007829  0.34059656  0.79873752     0.02800
C322        C  0.90599303  0.35573474  0.76020921    -0.11300
H323        H  0.83145650  0.31243401  0.69405027     0.08400
H324        H  0.84291600  0.30112950  0.82928777     0.05900
H325        H  0.93219724  0.37841910  0.76034544     0.05800
C326        C  0.65267833  0.21328788  0.88018694     0.02800
C327        C  0.64383317  0.25266457  0.89734253    -0.13300
C328        C  0.66383972  0.28829636  0.88082225     0.00300
C329        C  0.69381191  0.28430508  0.84739659    -0.11900
C330        C  0.70328272  0.24520363  0.82936024     0.02800
C331        C  0.68232764  0.20965449  0.84591771    -0.11300
H332        H  0.62006205  0.25576230  0.92270083     0.08400
H333        H  0.70838959  0.31211542  0.83424529     0.05900
H334        H  0.68919548  0.17937722  0.83250986     0.05800
C335        C  0.72109916  0.15251382  0.63473591     0.02800
C336        C  0.72069342  0.17678576  0.67193375    -0.13300
C337        C  0.76013275  0.18698352  0.69227747     0.00300
C338        C  0.80006193  0.17242638  0.67521256    -0.11900
C339        C  0.80092373  0.14813459  0.63848130     0.02800
C340        C  0.76137409  0.13850993  0.61824795    -0.11300
H341        H  0.68997915  0.18862527  0.68423754     0.08400
H342        H  0.83072338  0.17994998  0.69059231     0.05900
H343        H  0.76186475  0.11919999  0.59013856     0.05800
C344        C  0.75266840  0.78548319  0.26001759     0.79900
N345        N  0.78310962  0.75491030  0.26276139    -0.78400
C346        C  0.78341724  0.72271250  0.23518171     0.82400
N347        N  0.75268646  0.72114666  0.20426507    -0.78300
C348        C  0.72161644  0.75142999  0.20091185     0.82400
N349        N  0.72153005  0.78357029  0.22916427    -0.80100
C350        C  0.71481635  0.86074838  0.34538416     0.02800
C351        C  0.71363460  0.83334314  0.31068081    -0.13300
C352        C  0.75292677  0.81872565  0.29244762     0.00300
C353        C  0.79329914  0.83235652  0.30899314    -0.11900
C354        C  0.79449845  0.86018882  0.34304831     0.02800
C355        C  0.75528698  0.87375130  0.36128085    -0.11300
H356        H  0.68242149  0.82209621  0.29925093     0.08400
H357        H  0.82381059  0.82079720  0.29590104     0.05900
H358        H  0.75634267  0.89359932  0.38900265     0.05800
C359        C  0.86499067  0.63567020  0.21339650     0.02800
C360        C  0.83341144  0.66688336  0.20658793    -0.13300
C361        C  0.81507100  0.68841059  0.24126015     0.00300
C362        C  0.82786949  0.67762578  0.28262095    -0.11900
C363        C  0.85834996  0.64583048  0.28930616     0.02800
C364        C  0.87617628  0.62467452  0.25475015    -0.11300
H365        H  0.82441720  0.67530437  0.17456057     0.08400
H366        H  0.81415759  0.69380546  0.30968295     0.05900
H367        H  0.89995860  0.60017539  0.26004807     0.05800
C368        C  0.63154209  0.77692795  0.12100628     0.02800
C369        C  0.66422100  0.78205368  0.15204161    -0.13300
C370        C  0.68665737  0.74726950  0.16843208     0.00300
C371        C  0.67541210  0.70744747  0.15369335    -0.11900
C372        C  0.64197184  0.70206055  0.12395493     0.02800
C373        C  0.62048291  0.73690786  0.10736596    -0.11300
H374        H  0.67266689  0.81299445  0.16263895     0.08400
H375        H  0.69179629  0.68024572  0.16621797     0.05900
H376        H  0.59510905  0.73285404  0.08379714     0.05800
C377        C  0.23193180  0.74962546  0.29057140     0.79900
N378        N  0.23542444  0.71884873  0.26127394    -0.78400
C379        C  0.26805755  0.71920080  0.23196238     0.82400
N380        N  0.29710543  0.75124354  0.23171832    -0.78300
C381        C  0.29398027  0.78233454  0.26099542     0.82400
N382        N  0.26125669  0.78134787  0.29016837    -0.80100
C383        C  0.36522447  0.87617691  0.28807220     0.02800
C384        C  0.34023237  0.83963766  0.29303971    -0.13300
C385        C  0.32183324  0.81981601  0.25729182     0.00300
C386        C  0.32757838  0.83758138  0.21714572    -0.11900
C387        C  0.35205592  0.87393246  0.21198269     0.02800
C388        C  0.37084254  0.89290655  0.24752833    -0.11300
H389        H  0.33545291  0.82663466  0.32432439     0.08400
H390        H  0.31134312  0.82398572  0.19005831     0.05900
H391        H  0.39000864  0.92094310  0.24363203     0.05800
C392        C  0.13667588  0.71342603  0.35854056     0.02800
C393        C  0.17339277  0.71300811  0.33178157    -0.13300
C394        C  0.19455440  0.75012166  0.32054304     0.00300
C395        C  0.17877081  0.78795259  0.33677739    -0.11900
C396        C  0.14226207  0.78906156  0.36381414     0.02800
C397        C  0.12104239  0.75160071  0.37435854    -0.11300
H398        H  0.18542614  0.68360681  0.31973088     0.08400
H399        H  0.19415521  0.81682974  0.32750467     0.05900
H400        H  0.09283738  0.75210146  0.39522880     0.05800
C401        C  0.31051146  0.63544482  0.15684392     0.02800
C402        C  0.30968549  0.66743722  0.18730900    -0.13300
C403        C  0.26970829  0.68630808  0.19899554     0.00300
C404        C  0.23065411  0.67314152  0.17939563    -0.11900
C405        C  0.23137921  0.64178520  0.14848538     0.02800
C406        C  0.27130324  0.62311304  0.13761060    -0.11300
H407        H  0.33987738  0.67703806  0.20229963     0.08400
H408        H  0.19974728  0.68754386  0.18784568     0.05900
H409        H  0.27192756  0.59900051  0.11364891     0.05800
O410        O  0.96355410  0.89627854  0.46707710    -0.80500
O411        O  0.04522820  0.04904629  0.42975482    -0.80500
O412        O  0.90780620  0.03616616  0.48320854    -0.80500
O413        O  0.08840838  0.95154468  0.47351365    -0.80400
O414        O  0.95849031  0.04155269  0.43737720    -0.80500
O415        O  0.02819047  0.94669607  0.43622225    -0.80500
O416        O  0.10019676  0.03553057  0.47249513    -0.80500
O417        O  0.93256880  0.95728920  0.45622440    -0.80500
C418        C  0.93494925  0.91799129  0.44812780     1.09200
C419        C  0.08568804  0.04886516  0.43728235     1.09100
C420        C  0.92109129  0.05220891  0.44894144     1.09300
C421        C  0.06806701  0.93732046  0.44126969     1.09100
O422        O  0.03743914  0.90870499  0.51768183    -0.80500
O423        O  0.96133001  0.08166875  0.52213617    -0.80500
O424        O  0.89355680  0.96489360  0.53323668    -0.80500
O425        O  0.06705976  0.04250411  0.55803311    -0.80400
O426        O  0.05005715  0.08983635  0.51040177    -0.80500
O427        O  0.95663339  0.93372882  0.54340558    -0.80500
O428        O  0.05574709  0.95793200  0.56069834    -0.80400
O429        O  0.95073120  0.02607951  0.56170654    -0.80500
Co430      Co  0.99215167  0.94456866  0.48811806     1.51500
Co431      Co  0.00372151  0.06209871  0.47543512     1.51700
Co432      Co  0.94542353  0.99102669  0.51108990     1.51600
Co433      Co  0.07365631  0.99715611  0.51611160     1.51500
O434        O  0.00959236  0.00410325  0.49910401    -1.42400
C435        C  0.05801649  0.92025691  0.55050464     1.09200
C436        C  0.94594055  0.06477202  0.55591031     1.09300
C437        C  0.91480305  0.93497174  0.54949259     1.09200
C438        C  0.06715024  0.07977420  0.54551964     1.09200
C439        C  0.13147799  0.89019431  0.42616070    -0.20600
C440        C  0.08905895  0.90367184  0.41497807    -0.07200
C441        C  0.06637895  0.88090328  0.38316547     0.13700
C442        C  0.08478384  0.84398254  0.36698426    -0.20700
C443        C  0.12580411  0.82959829  0.38027879    -0.07200
C444        C  0.15021018  0.85392829  0.40895304     0.13700
C445        C  0.19555892  0.84110265  0.42251335    -0.24000
H446        H  0.14982038  0.90737096  0.44964719     0.15000
H447        H  0.06681145  0.82584019  0.34394706     0.15000
C448        C  0.02268608  0.89448072  0.36594470    -0.24000
H449        H  0.21821525  0.84204404  0.39505456     0.05200
H450        H  0.19495147  0.80912588  0.43552766     0.08400
H451        H  0.20888297  0.86213731  0.44716391     0.08400
H452        H  0.02469211  0.92699516  0.35449202     0.08400
H453        H  0.99726014  0.89165915  0.39068129     0.08400
H454        H  0.01208559  0.87487326  0.33893036     0.05200
C455        C  0.85747588  0.84475934  0.38985333    -0.20600
C456        C  0.83625045  0.87282161  0.36288011    -0.07200
C457        C  0.85140625  0.91403675  0.36017001     0.13700
C458        C  0.88549082  0.92700818  0.38667147    -0.20700
C459        C  0.90477229  0.89988046  0.41618015    -0.07200
C460        C  0.89152780  0.85769973  0.41668874     0.13700
C461        C  0.91110850  0.82661757  0.44686524    -0.24000
H462        H  0.84561680  0.81311433  0.39162768     0.15000
H463        H  0.89610008  0.95906595  0.38526119     0.15000
C464        C  0.83117377  0.94453373  0.32977530    -0.24000
H465        H  0.89594686  0.79549425  0.44343534     0.05200
H466        H  0.90589018  0.83701107  0.48003149     0.08400
H467        H  0.94666752  0.82315303  0.44039901     0.08400
H468        H  0.79615845  0.94932693  0.33760572     0.08400
H469        H  0.83399492  0.93243321  0.29696705     0.08400
H470        H  0.84762217  0.97522754  0.33103544     0.05200
C471        C  0.85633749  0.09169211  0.63690265    -0.20600
C472        C  0.84287797  0.13063105  0.62230985    -0.07200
C473        C  0.86817371  0.15093804  0.59125679     0.13700
C474        C  0.90372993  0.12991316  0.57228024    -0.20700
C475        C  0.91525079  0.08901543  0.58408792    -0.07200
C476        C  0.89227506  0.07072784  0.61874712     0.13700
C477        C  0.90413042  0.02880012  0.63665368    -0.24000
H478        H  0.83747588  0.07691152  0.66178347     0.15000
H479        H  0.92137183  0.14504316  0.54682882     0.15000
C480        C  0.85725684  0.19464422  0.57803457    -0.24000
H481        H  0.88518511  0.02169086  0.66581751     0.05200
H482        H  0.93938271  0.02812264  0.64511645     0.08400
H483        H  0.89662223  0.00398231  0.61348439     0.08400
H484        H  0.85996196  0.21565492  0.60577233     0.08400
H485        H  0.82327367  0.19612018  0.56578245     0.08400
H486        H  0.87984056  0.20605132  0.55302901     0.05200
C487        C  0.14275182  0.12946499  0.36915200    -0.20600
C488        C  0.18350368  0.11032515  0.36240320    -0.07200
C489        C  0.18866572  0.06797799  0.37387106     0.13700
C490        C  0.15563773  0.04812951  0.39719779    -0.20700
C491        C  0.11625673  0.06839735  0.40680777    -0.07200
C492        C  0.10879243  0.10883334  0.39062461     0.13700
C493        C  0.06621682  0.13150521  0.39819028    -0.24000
H494        H  0.13833795  0.16160959  0.35998758     0.15000
H495        H  0.16082291  0.01664104  0.40827043     0.15000
C496        C  0.22856680  0.04281767  0.36208456    -0.24000
H497        H  0.05973530  0.13429963  0.43265028     0.05200
H498        H  0.06675522  0.16330320  0.38463499     0.08400
H499        H  0.03895917  0.11442084  0.38295299     0.08400
H500        H  0.24633154  0.03339662  0.39117250     0.08400
H501        H  0.25130227  0.05989775  0.34099005     0.08400
H502        H  0.21825132  0.01447090  0.34479863     0.05200
C503        C  0.92713547  0.34124185  0.86878967    -0.20600
C504        C  0.90306894  0.36210422  0.83761043    -0.07200
C505        C  0.89323962  0.40457253  0.84251798     0.13700
C506        C  0.91138695  0.42612626  0.87611765    -0.20700
C507        C  0.93650241  0.40613850  0.90734632    -0.07200
C508        C  0.94306606  0.36256687  0.90446544     0.13700
C509        C  0.96573511  0.33813770  0.93866014    -0.24000
H510        H  0.93344906  0.30831641  0.86511111     0.15000
H511        H  0.90423253  0.45903160  0.87833982     0.15000
C512        C  0.86281331  0.42825106  0.81354478    -0.24000
H513        H  0.96763871  0.30457488  0.93081398     0.05200
H514        H  0.94738416  0.34120571  0.96889218     0.08400
H515        H  0.99956803  0.34954175  0.94285215     0.08400
H516        H  0.84637945  0.40843070  0.78979073     0.08400
H517        H  0.88136386  0.45292873  0.79683391     0.08400
H518        H  0.83645840  0.44299095  0.83265322     0.05200
C519        C  0.95288001  0.59090279  0.14095994    -0.20600
C520        C  0.92782514  0.56684048  0.11296899    -0.07200
C521        C  0.88148896  0.56575476  0.11851681     0.13700
C522        C  0.86207822  0.58922780  0.15104715    -0.20700
C523        C  0.88718611  0.61411360  0.17789578    -0.07200
C524        C  0.93325020  0.61501961  0.17274620     0.13700
C525        C  0.96275808  0.64215420  0.19913952    -0.24000
H526        H  0.98809451  0.59255193  0.13692298     0.15000
H527        H  0.82692027  0.58811903  0.15572664     0.15000
C528        C  0.85169579  0.54025980  0.09067079    -0.24000
H529        H  0.98238248  0.66245251  0.17799523     0.05200
H530        H  0.98537841  0.62237103  0.21783256     0.08400
H531        H  0.94469279  0.66278697  0.22115732     0.08400
H532        H  0.86309866  0.50760947  0.08935646     0.08400
H533        H  0.85076162  0.55337014  0.05823900     0.08400
H534        H  0.81748141  0.54008459  0.10266939     0.05200
C535        C  0.07980613  0.40086654  0.18851466    -0.20600
C536        C  0.12563142  0.39938858  0.19048894    -0.07200
C537        C  0.15012883  0.42088137  0.15947000     0.13700
C538        C  0.12811532  0.44126066  0.12621716    -0.20700
C539        C  0.08199615  0.44168860  0.12330601    -0.07200
C540        C  0.05771139  0.42190856  0.15597013     0.13700
C541        C  0.00855036  0.42204238  0.15716629    -0.24000
H542        H  0.06101736  0.38499510  0.21274359     0.15000
H543        H  0.14729972  0.45684600  0.10212249     0.15000
C544        C  0.19928589  0.42382048  0.16204320    -0.24000
H545        H  0.99547649  0.40612320  0.18569275     0.05200
H546        H  0.99564105  0.40540446  0.12928450     0.08400
H547        H  0.99650673  0.45454142  0.15793848     0.08400
H548        H  0.21438812  0.39274696  0.15824301     0.08400
H549        H  0.20884822  0.43712628  0.19309431     0.08400
H550        H  0.21285364  0.44411490  0.13682451     0.05200
C551        C  0.17315680  0.65457460  0.09482367    -0.20600
C552        C  0.19088992  0.62867247  0.12622849    -0.07200
C553        C  0.17235405  0.58908955  0.13304362     0.13700
C554        C  0.13764382  0.57580097  0.10735622    -0.20700
C555        C  0.12064066  0.60116322  0.07516055    -0.07200
C556        C  0.13829253  0.64120430  0.06906262     0.13700
C557        C  0.12217137  0.66879011  0.03394568    -0.24000
H558        H  0.18778231  0.68473346  0.08939589     0.15000
H559        H  0.12377807  0.54520831  0.11226300     0.15000
C560        C  0.18901071  0.56089334  0.16752945    -0.24000
H561        H  0.14040100  0.69855695  0.03277238     0.05200
H562        H  0.08697740  0.67606005  0.03871176     0.08400
H563        H  0.12665663  0.65281664  0.00308672     0.08400
H564        H  0.18625242  0.57683465  0.19859601     0.08400
H565        H  0.22375439  0.55261851  0.16158212     0.08400
H566        H  0.16999362  0.53157867  0.16927105     0.05200
C567        C  0.86734172  0.36771687  0.05769076    -0.20600
C568        C  0.88955822  0.40015968  0.07783541    -0.07200
C569        C  0.87775487  0.41138273  0.11970416     0.13700
C570        C  0.84362567  0.39011207  0.14010692    -0.20700
C571        C  0.82059808  0.35846801  0.11950027    -0.07200
C572        C  0.83275451  0.34690239  0.07791943     0.13700
C573        C  0.80950480  0.31236423  0.05504513    -0.24000
H574        H  0.87692729  0.35885792  0.02586326     0.15000
H575        H  0.83404423  0.39911844  0.17189900     0.15000
C576        C  0.90001819  0.44573136  0.14372062    -0.24000
H577        H  0.82411645  0.30640255  0.02338163     0.05200
H578        H  0.77455313  0.32055123  0.05039835     0.08400
H579        H  0.81175655  0.28333303  0.07384544     0.08400
H580        H  0.92532738  0.46182578  0.12468796     0.08400
H581        H  0.91556717  0.43277729  0.17255730     0.08400
H582        H  0.87538774  0.46916131  0.15373592     0.05200
C583        C  0.89966743  0.14102416  0.37174549    -0.20600
C584        C  0.87747748  0.16967810  0.39742724    -0.07200
C585        C  0.86391521  0.15710030  0.43825288     0.13700
C586        C  0.87594179  0.11746006  0.45364706    -0.20700
C587        C  0.90059116  0.08957153  0.42876128    -0.07200
C588        C  0.91115450  0.10131327  0.38654976     0.13700
C589        C  0.93396667  0.07204583  0.35631624    -0.24000
H590        H  0.90811667  0.14992832  0.33965591     0.15000
H591        H  0.86723078  0.10882605  0.48571972     0.15000
C592        C  0.83595199  0.18516545  0.46511060    -0.24000
H593        H  0.93484280  0.08465858  0.32360701     0.05200
H594        H  0.91630145  0.04197003  0.35531233     0.08400
H595        H  0.96841044  0.06695999  0.36601961     0.08400
H596        H  0.80551891  0.19328618  0.44780972     0.08400
H597        H  0.85414960  0.21398847  0.47267424     0.08400
H598        H  0.82634073  0.16982282  0.49512883     0.05200
C599        C  0.10343128  0.55562395  0.86447420    -0.20600
C600        C  0.08083400  0.58004846  0.89458142    -0.07200
C601        C  0.07727616  0.62339821  0.88694748     0.13700
C602        C  0.09706778  0.64068860  0.85055545    -0.20700
C603        C  0.12017711  0.61609616  0.82129434    -0.07200
C604        C  0.12326272  0.57291311  0.82845179     0.13700
C605        C  0.14824507  0.54408999  0.79944481    -0.24000
H606        H  0.10668156  0.52245997  0.86935522     0.15000
H607        H  0.09404446  0.67369122  0.84453439     0.15000
C608        C  0.05300314  0.65189801  0.91671141    -0.24000
H609        H  0.17379665  0.52747848  0.81782399     0.05200
H610        H  0.16499355  0.56038694  0.77315270     0.08400
H611        H  0.12546019  0.52092520  0.78572086     0.08400
H612        H  0.06849255  0.65127217  0.94841722     0.08400
H613        H  0.01826830  0.64209421  0.91922182     0.08400
H614        H  0.05337778  0.68455782  0.90548104     0.05200
C615        C  0.14401963  0.87935548  0.62751847    -0.20600
C616        C  0.16858292  0.85324848  0.60091503    -0.07200
C617        C  0.15244061  0.84431818  0.55998502     0.13700
C618        C  0.11417614  0.86423115  0.54559140    -0.20700
C619        C  0.09155434  0.89314004  0.57094718    -0.07200
C620        C  0.10589536  0.89947630  0.61314872     0.13700
C621        C  0.08126746  0.92726951  0.64340701    -0.24000
H622        H  0.15572303  0.88530377  0.65931165     0.15000
H623        H  0.10322550  0.85872618  0.51347323     0.15000
C624        C  0.17504717  0.81339046  0.53157201    -0.24000
H625        H  0.09482979  0.92545600  0.67594829     0.05200
H626        H  0.04639323  0.91769434  0.64488490     0.08400
H627        H  0.08356364  0.96011750  0.63322408     0.08400
H628        H  0.17870604  0.78332151  0.54835289     0.08400
H629        H  0.20775877  0.82495041  0.52206846     0.08400
H630        H  0.15591263  0.80764829  0.50233690     0.05200
C631        C  0.57042707  0.82818586  0.11997873    -0.20600
C632        C  0.60922853  0.81325239  0.10176563    -0.07200
C633        C  0.62518848  0.83181329  0.06442021     0.13700
C634        C  0.60319834  0.86623958  0.04724369    -0.20700
C635        C  0.56536189  0.88297913  0.06646854    -0.07200
C636        C  0.54818500  0.86270669  0.10296772     0.13700
C637        C  0.50654749  0.87674896  0.12440785    -0.24000
H638        H  0.55773901  0.81291473  0.14800185     0.15000
H639        H  0.61666129  0.88089911  0.01923682     0.15000
C640        C  0.66580470  0.81548316  0.04293094    -0.24000
H641        H  0.49668280  0.85540387  0.15031869     0.05200
H642        H  0.47953200  0.87754455  0.10103099     0.08400
H643        H  0.51103846  0.90790325  0.13869352     0.08400
H644        H  0.66074423  0.78266594  0.03342507     0.08400
H645        H  0.69398587  0.81726717  0.06497782     0.08400
H646        H  0.67404784  0.83357455  0.01407869     0.05200
C647        C  0.39465195  0.86475291  0.93383270    -0.20600
C648        C  0.42782457  0.88818312  0.91420526    -0.07200
C649        C  0.44233238  0.87592688  0.87317691     0.13700
C650        C  0.42283352  0.84161132  0.85298124    -0.20700
C651        C  0.38931976  0.81890421  0.87241678    -0.07200
C652        C  0.37533194  0.83040858  0.91348432     0.13700
C653        C  0.33976688  0.80649553  0.93574485    -0.24000
H654        H  0.38318402  0.87377156  0.96501463     0.15000
H655        H  0.43431075  0.83192800  0.82200051     0.15000
C656        C  0.47951936  0.89759682  0.85088599    -0.24000
H657        H  0.33215240  0.81982454  0.96735830     0.05200
H658        H  0.35020362  0.77378069  0.94027566     0.08400
H659        H  0.30942590  0.80719409  0.91647415     0.08400
H660        H  0.50898027  0.89721197  0.87129118     0.08400
H661        H  0.47030984  0.93002888  0.84319827     0.08400
H662        H  0.48831469  0.88204754  0.82062590     0.05200
C663        C  0.66022635  0.02890794  0.11889542    -0.20600
C664        C  0.62660760  0.05002281  0.09755544    -0.07200
C665        C  0.61562268  0.09095415  0.11034477     0.13700
C666        C  0.63613063  0.10835229  0.14584117    -0.20700
C667        C  0.66668967  0.08580469  0.16955856    -0.07200
C668        C  0.68018843  0.04621675  0.15503892     0.13700
C669        C  0.71534783  0.02218487  0.17773812    -0.24000
H670        H  0.66893703  0.99776721  0.10892315     0.15000
H671        H  0.62628075  0.13890905  0.15672074     0.15000
C672        C  0.58171949  0.11641717  0.08724711    -0.24000
H673        H  0.72292212  0.99247381  0.16141316     0.05200
H674        H  0.70476971  0.01476625  0.21046742     0.08400
H675        H  0.74579692  0.04090300  0.17889780     0.08400
H676        H  0.54890012  0.10226148  0.09067060     0.08400
H677        H  0.59038661  0.11866341  0.05321276     0.08400
H678        H  0.57947675  0.14848618  0.10000746     0.05200
C679        C  0.34498656  0.93536351  0.16523918    -0.20600
C680        C  0.35703745  0.89345926  0.16975910    -0.07200
C681        C  0.37688436  0.87246827  0.13527593     0.13700
C682        C  0.38522551  0.89438777  0.09775005    -0.20700
C683        C  0.37561576  0.93679110  0.09441705    -0.07200
C684        C  0.35468641  0.95742955  0.12814181     0.13700
C685        C  0.34409274  0.00301633  0.12544999    -0.24000
H686        H  0.32962052  0.95133461  0.19160467     0.15000
H687        H  0.40234902  0.87914973  0.07192622     0.15000
C688        C  0.39269997  0.82820206  0.13883054    -0.24000
H689        H  0.32800339  0.01448295  0.15478877     0.05200
H690        H  0.32150651  0.00849071  0.09856913     0.08400
H691        H  0.37452680  0.02119125  0.12050538     0.08400
H692        H  0.41500428  0.82506193  0.16634809     0.08400
H693        H  0.41099024  0.81827319  0.11010895     0.08400
H694        H  0.36464455  0.80678073  0.14256033     0.05200
C695        C  0.34920742  0.14980034  0.07520962    -0.20600
C696        C  0.37264914  0.17463828  0.10371017    -0.07200
C697        C  0.41656527  0.16423241  0.11278654     0.13700
C698        C  0.43623205  0.13024322  0.09237745    -0.20700
C699        C  0.41316611  0.10482947  0.06377253    -0.07200
C700        C  0.36840902  0.11466887  0.05568913     0.13700
C701        C  0.33991916  0.08819499  0.02762943    -0.24000
H702        H  0.31556739  0.15802368  0.06821362     0.15000
H703        H  0.46994588  0.12304483  0.10004952     0.15000
C704        C  0.44361527  0.18788543  0.14450981    -0.24000
H705        H  0.30623080  0.10095024  0.02494385     0.05200
H706        H  0.33719766  0.05650390  0.04100906     0.08400
H707        H  0.35370359  0.08633384  0.99523564     0.08400
H708        H  0.42511436  0.21303957  0.16049708     0.08400
H709        H  0.47243913  0.20172266  0.12839597     0.08400
H710        H  0.45527678  0.16628052  0.16945573     0.05200
C711        C  0.56405400  0.13454040  0.90834820    -0.20600
C712        C  0.58623183  0.10814302  0.93650064    -0.07200
C713        C  0.63100921  0.11579342  0.94502065     0.13700
C714        C  0.65213169  0.14979168  0.92565004    -0.20700
C715        C  0.62966160  0.17642061  0.89799989    -0.07200
C716        C  0.58495980  0.16879995  0.88953399     0.13700
C717        C  0.55933718  0.19655499  0.86026953    -0.24000
H718        H  0.53009741  0.12822036  0.90093523     0.15000
H719        H  0.68636059  0.15574985  0.93219548     0.15000
C720        C  0.65716809  0.08718173  0.97295274    -0.24000
H721        H  0.52527199  0.18537088  0.85589455     0.05200
H722        H  0.57546008  0.19761765  0.82874784     0.08400
H723        H  0.55760952  0.22832865  0.87366319     0.08400
H724        H  0.65619808  0.05512853  0.96008292     0.08400
H725        H  0.64349596  0.08736484  0.00547282     0.08400
H726        H  0.69198756  0.09681820  0.97494902     0.05200
C727        C  0.07580786  0.12200383  0.61097874    -0.20600
C728        C  0.09036916  0.11188883  0.57009025    -0.07200
C729        C  0.12600552  0.13387549  0.55225079     0.13700
C730        C  0.14475998  0.16674145  0.57483477    -0.20700
C731        C  0.12913392  0.17795206  0.61491554    -0.07200
C732        C  0.09466568  0.15510967  0.63355484     0.13700
C733        C  0.07673622  0.16672502  0.67640888    -0.24000
H734        H  0.04862292  0.10497975  0.62457405     0.15000
H735        H  0.17129292  0.18439845  0.56084671     0.15000
C736        C  0.14485855  0.12248474  0.50964788    -0.24000
H737        H  0.04925009  0.14622401  0.68596847     0.05200
H738        H  0.06449155  0.19919516  0.67577683     0.08400
H739        H  0.10287245  0.16396704  0.70058986     0.08400
H740        H  0.11992237  0.12692084  0.48466556     0.08400
H741        H  0.15583863  0.08963111  0.51000080     0.08400
H742        H  0.17354459  0.14201150  0.50131314     0.05200
C743        C  0.38089223  0.13000930  0.86520781    -0.20600
C744        C  0.36051232  0.10928969  0.83176952    -0.07200
C745        C  0.34982346  0.06679617  0.83591824     0.13700
C746        C  0.36399530  0.04506824  0.87188262    -0.20700
C747        C  0.38900169  0.06487269  0.90307955    -0.07200
C748        C  0.39589831  0.10833730  0.90063180     0.13700
C749        C  0.42112938  0.13194939  0.93394975    -0.24000
H750        H  0.38790922  0.16285671  0.86214021     0.15000
H751        H  0.35867267  0.01184619  0.87372093     0.15000
C752        C  0.32451894  0.04341084  0.80271196    -0.24000
H753        H  0.42044078  0.16592075  0.92801193     0.05200
H754        H  0.45597643  0.12241992  0.93418200     0.08400
H755        H  0.40676146  0.12657381  0.96564846     0.08400
H756        H  0.34521501  0.01814077  0.78950549     0.08400
H757        H  0.31353562  0.06347548  0.77628020     0.08400
H758        H  0.29485976  0.02956536  0.81733616     0.05200
C759        C  0.15157801  0.33099918  0.95215813    -0.20600
C760        C  0.15194441  0.33569070  0.90786440    -0.07200
C761        C  0.11610071  0.35544855  0.88809562     0.13700
C762        C  0.08364463  0.37389513  0.91339161    -0.20700
C763        C  0.08671639  0.37440569  0.95786485    -0.07200
C764        C  0.11968977  0.35040540  0.97755615     0.13700
C765        C  0.12510244  0.34754480  0.02488001    -0.24000
H766        H  0.17878416  0.31530559  0.96732767     0.15000
H767        H  0.05798928  0.39186105  0.89828369     0.15000
C768        C  0.11394018  0.36091225  0.84072383    -0.24000
H769        H  0.15688085  0.36149347  0.03415309     0.05200
H770        H  0.12495589  0.31440052  0.03448689     0.08400
H771        H  0.09891248  0.36330963  0.04292738     0.08400
H772        H  0.11161904  0.33019431  0.82506982     0.08400
H773        H  0.14351137  0.37745971  0.82921170     0.08400
H774        H  0.08480771  0.37926445  0.83105953     0.05200
C775        C  0.84717813  0.65332641  0.94295677    -0.20600
C776        C  0.84145193  0.64409453  0.89969450    -0.07200
C777        C  0.87446294  0.62144981  0.87836714     0.13700
C778        C  0.91114369  0.60735782  0.90095416    -0.20700
C779        C  0.91541081  0.61367010  0.94487944    -0.07200
C780        C  0.88367504  0.63830614  0.96584492     0.13700
C781        C  0.88660629  0.64654780  0.01266034    -0.24000
H782        H  0.82186235  0.67068431  0.95934803     0.15000
H783        H  0.93527686  0.58840932  0.88468228     0.15000
C784        C  0.86953524  0.60893603  0.83260123    -0.24000
H785        H  0.85890332  0.66597559  0.02406359     0.05200
H786        H  0.91753546  0.66314868  0.01976567     0.08400
H787        H  0.88591915  0.61684401  0.03035420     0.08400
H788        H  0.86897597  0.63683289  0.81208930     0.08400
H789        H  0.83871785  0.59119595  0.82838148     0.08400
H790        H  0.89705658  0.58897133  0.82175830     0.05200
C791        C  0.83423748  0.85083111  0.58670933    -0.20600
C792        C  0.86097153  0.82730850  0.61372521    -0.07200
C793        C  0.90379834  0.84163215  0.62242199     0.13700
C794        C  0.91924169  0.87796349  0.60280109    -0.20700
C795        C  0.89328435  0.90097571  0.57446065    -0.07200
C796        C  0.84983219  0.88722255  0.56674011     0.13700
C797        C  0.82044768  0.90918097  0.53571586    -0.24000
H798        H  0.80150915  0.83975764  0.57995516     0.15000
H799        H  0.95251921  0.88783727  0.60908364     0.15000
C800        C  0.93446104  0.81909735  0.65192005    -0.24000
H801        H  0.78824602  0.89352262  0.53266870     0.05200
H802        H  0.83604089  0.90956620  0.50391050     0.08400
H803        H  0.81426007  0.94144315  0.54654450     0.08400
H804        H  0.96395144  0.80880409  0.63413440     0.08400
H805        H  0.91944787  0.79151841  0.66697429     0.08400
H806        H  0.94476714  0.84041334  0.67764334     0.05200
C807        C  0.64404940  0.92301353  0.83156673    -0.20600
C808        C  0.63171303  0.88102270  0.83129224    -0.07200
C809        C  0.60986357  0.86412532  0.86669238     0.13700
C810        C  0.59937581  0.89007580  0.90085525    -0.20700
C811        C  0.60875603  0.93270842  0.89978745    -0.07200
C812        C  0.63231582  0.94924265  0.86530614     0.13700
C813        C  0.64200082  0.99499317  0.86263757    -0.24000
H814        H  0.66085894  0.93573565  0.80425188     0.15000
H815        H  0.58011219  0.87786295  0.92690530     0.15000
C816        C  0.59433079  0.81973794  0.86704575    -0.24000
H817        H  0.66035017  0.00285043  0.83332780     0.05200
H818        H  0.66202930  0.00452097  0.89024271     0.08400
H819        H  0.61095302  0.01298637  0.86262728     0.08400
H820        H  0.62270743  0.79828271  0.86515603     0.08400
H821        H  0.57233866  0.81423109  0.83967673     0.08400
H822        H  0.57584765  0.81231807  0.89640255     0.05200
C823        C  0.34453175  0.35545341  0.07691224    -0.20600
C824        C  0.36932359  0.32848496  0.10235306    -0.07200
C825        C  0.41345299  0.33819835  0.11078383     0.13700
C826        C  0.43236931  0.37315306  0.09192004    -0.20700
C827        C  0.40853233  0.39953171  0.06486290    -0.07200
C828        C  0.36344127  0.39115715  0.05837617     0.13700
C829        C  0.33526972  0.41895383  0.03154501    -0.24000
H830        H  0.31048137  0.34813126  0.07097912     0.15000
H831        H  0.46643452  0.37984438  0.09854536     0.15000
C832        C  0.44081373  0.31185458  0.14004710    -0.24000
H833        H  0.30134680  0.40693182  0.02873987     0.05200
H834        H  0.34923085  0.42116459  0.99930247     0.08400
H835        H  0.33343376  0.45035498  0.04589513     0.08400
H836        H  0.44511855  0.28039523  0.12648715     0.08400
H837        H  0.42454907  0.30952708  0.17143004     0.08400
H838        H  0.47393849  0.32516326  0.14491799     0.05200
C839        C  0.59223500  0.38371553  0.88945286    -0.20600
C840        C  0.60960642  0.40426798  0.92495068    -0.07200
C841        C  0.64923303  0.38941796  0.94257666     0.13700
C842        C  0.66737617  0.35177470  0.92729759    -0.20700
C843        C  0.64764786  0.32993117  0.89379211    -0.07200
C844        C  0.61083538  0.34717723  0.87356312     0.13700
C845        C  0.59044540  0.32647624  0.83561274    -0.24000
H846        H  0.56282013  0.39569850  0.87465686     0.15000
H847        H  0.69648755  0.33900948  0.94192951     0.15000
C848        C  0.67201836  0.41266059  0.97745529    -0.24000
H849        H  0.56188998  0.34420772  0.82349339     0.05200
H850        H  0.57904350  0.29493434  0.84418283     0.08400
H851        H  0.61494386  0.32408871  0.80970010     0.08400
H852        H  0.65010612  0.41611707  0.00519503     0.08400
H853        H  0.68140210  0.44396784  0.96597176     0.08400
H854        H  0.70226319  0.39646810  0.98785785     0.05200
C855        C  0.61094445  0.37366511  0.07346832    -0.20600
C856        C  0.59131932  0.40388545  0.09951451    -0.07200
C857        C  0.60272117  0.40496903  0.14305480     0.13700
C858        C  0.63638855  0.37898137  0.15797718    -0.20700
C859        C  0.65907474  0.35218830  0.13065620    -0.07200
C860        C  0.64473188  0.34799799  0.08836964     0.13700
C861        C  0.66508608  0.31738352  0.05800766    -0.24000
H862        H  0.60098116  0.37098886  0.04066993     0.15000
H863        H  0.64730277  0.38181728  0.19048056     0.15000
C864        C  0.58171733  0.43496702  0.17361822    -0.24000
H865        H  0.63931253  0.29659458  0.04531157     0.05200
H866        H  0.69025461  0.29754705  0.07318609     0.08400
H867        H  0.68055974  0.33423362  0.03127867     0.08400
H868        H  0.54599079  0.42896094  0.17549130     0.08400
H869        H  0.58764820  0.46736123  0.16313262     0.08400
H870        H  0.59520293  0.43170725  0.20607232     0.05200
C871        C  0.65412836  0.63563008  0.91946080    -0.20600
C872        C  0.67998853  0.61874295  0.88701957    -0.07200
C873        C  0.66723126  0.58097954  0.86815480     0.13700
C874        C  0.62969445  0.56027459  0.88302614    -0.20700
C875        C  0.60435171  0.57613036  0.91671580    -0.07200
C876        C  0.61646806  0.61503637  0.93451233     0.13700
C877        C  0.58975823  0.63566767  0.96880004    -0.24000
H878        H  0.66374179  0.66500127  0.93332686     0.15000
H879        H  0.62114570  0.53061688  0.86917018     0.15000
C880        C  0.69387181  0.56207786  0.83284440    -0.24000
H881        H  0.60224834  0.66714521  0.97641636     0.05200
H882        H  0.59114876  0.61730832  0.99834838     0.08400
H883        H  0.55524623  0.63888400  0.95833246     0.08400
H884        H  0.72774003  0.55599758  0.84396229     0.08400
H885        H  0.69499213  0.58370969  0.80552180     0.08400
H886        H  0.67973170  0.53226241  0.82178963     0.05200
C887        C  0.57658596  0.60362849  0.10490656    -0.20600
C888        C  0.60520914  0.58045565  0.07895825    -0.07200
C889        C  0.64737734  0.59700720  0.07007030     0.13700
C890        C  0.65872306  0.63628403  0.08619813    -0.20700
C891        C  0.62917396  0.65974997  0.11045546    -0.07200
C892        C  0.58791862  0.64278473  0.12070555     0.13700
C893        C  0.55504636  0.66482144  0.14852960    -0.24000
H894        H  0.54442068  0.59155046  0.11254817     0.15000
H895        H  0.69048103  0.64942525  0.07880414     0.15000
C896        C  0.68031717  0.57457904  0.04271705    -0.24000
H897        H  0.54680885  0.64480865  0.17601675     0.05200
H898        H  0.52472370  0.67096083  0.13022803     0.08400
H899        H  0.56716957  0.69469709  0.16122608     0.08400
H900        H  0.66716125  0.57059077  0.01024273     0.08400
H901        H  0.68809860  0.54386822  0.05676441     0.08400
H902        H  0.71148157  0.59208128  0.03990330     0.05200
C903        C  0.36794303  0.64092163  0.88659047    -0.20600
C904        C  0.39303300  0.66504769  0.85891889    -0.07200
C905        C  0.43575116  0.65177847  0.84783069     0.13700
C906        C  0.45305314  0.61536355  0.86611909    -0.20700
C907        C  0.42872490  0.59254974  0.89572972    -0.07200
C908        C  0.38528700  0.60508259  0.90540361     0.13700
C909        C  0.35694234  0.58081313  0.93572195    -0.24000
H910        H  0.33513714  0.65111924  0.89475154     0.15000
H911        H  0.48628132  0.60581238  0.85884912     0.15000
C912        C  0.46308919  0.67626227  0.81701947    -0.24000
H913        H  0.32349218  0.59418207  0.93827041     0.05200
H914        H  0.37133485  0.58096483  0.96791706     0.08400
H915        H  0.35374665  0.54840041  0.92438065     0.08400
H916        H  0.46925135  0.70782942  0.82970195     0.08400
H917        H  0.44559742  0.67884699  0.78636146     0.08400
H918        H  0.49526157  0.66119021  0.81109015     0.05200
C919        C  0.35596250  0.57145130  0.15380364    -0.20600
C920        C  0.35172654  0.61391454  0.14432652    -0.07200
C921        C  0.38352166  0.63287832  0.11816764     0.13700
C922        C  0.41731549  0.60855410  0.10077688    -0.20700
C923        C  0.41995469  0.56543269  0.10777489    -0.07200
C924        C  0.38950009  0.54692437  0.13587682     0.13700
C925        C  0.39020133  0.50104837  0.14508714    -0.24000
H926        H  0.33138397  0.55694924  0.17368066     0.15000
H927        H  0.44048848  0.62316829  0.07943420     0.15000
C928        C  0.38146299  0.67798586  0.10557013    -0.24000
H929        H  0.36390132  0.49202432  0.16759525     0.05200
H930        H  0.42204764  0.49230355  0.15942687     0.08400
H931        H  0.38514914  0.48325276  0.11544130     0.08400
H932        H  0.35313380  0.69473493  0.11931565     0.08400
H933        H  0.37905204  0.68039717  0.07058339     0.08400
H934        H  0.41175795  0.69390411  0.11607210     0.05200
C935        C  0.34163587  0.44281112  0.90223121    -0.20600
C936        C  0.37946182  0.42380073  0.91846520    -0.07200
C937        C  0.38158534  0.37983793  0.92022784     0.13700
C938        C  0.34570067  0.35636916  0.90617881    -0.20700
C939        C  0.30782663  0.37558694  0.89060133    -0.07200
C940        C  0.30594692  0.41933775  0.88808229     0.13700
C941        C  0.26690700  0.44141252  0.86940237    -0.24000
H942        H  0.34005086  0.47634561  0.90034009     0.15000
H943        H  0.34685401  0.32278097  0.90792678     0.15000
C944        C  0.42062266  0.35736060  0.93832075    -0.24000
H945        H  0.27209633  0.47548289  0.86768187     0.05200
H946        H  0.23737869  0.43602839  0.88909591     0.08400
H947        H  0.26092510  0.42990010  0.83679521     0.08400
H948        H  0.42674370  0.36813468  0.97116576     0.08400
H949        H  0.44996609  0.36309986  0.91840673     0.08400
H950        H  0.41540841  0.32326843  0.93937319     0.05200
C951        C  0.07864904  0.37417834  0.40311934    -0.20600
C952        C  0.09105571  0.41389514  0.41751957    -0.07200
C953        C  0.12795289  0.43303317  0.39802356     0.13700
C954        C  0.14794513  0.41426766  0.36277240    -0.20700
C955        C  0.13243437  0.37694705  0.34609134    -0.07200
C956        C  0.09853807  0.35578885  0.36740750     0.13700
C957        C  0.08164526  0.31500013  0.35099239    -0.24000
H958        H  0.05110260  0.35864420  0.41780276     0.15000
H959        H  0.17425903  0.43014194  0.34635973     0.15000
C960        C  0.14536427  0.47437217  0.41203338    -0.24000
H961        H  0.05454059  0.30282726  0.37089958     0.05200
H962        H  0.10846675  0.29169824  0.35090837     0.08400
H963        H  0.06918395  0.31897256  0.31825114     0.08400
H964        H  0.15164010  0.47408809  0.44664199     0.08400
H965        H  0.12139459  0.49885522  0.40367172     0.08400
H966        H  0.17660115  0.48231084  0.39589467     0.05200
C967        C  0.92442047  0.64095713  0.39015575    -0.20600
C968        C  0.91660576  0.59970948  0.40253805    -0.07200
C969        C  0.88376936  0.57663391  0.38134241     0.13700
C970        C  0.86230698  0.59439186  0.34659723    -0.20700
C971        C  0.87310879  0.63414627  0.33207058    -0.07200
C972        C  0.90355191  0.65832478  0.35485966     0.13700
C973        C  0.91694196  0.70142198  0.34151401    -0.24000
H974        H  0.94928579  0.65897194  0.40625195     0.15000
H975        H  0.83878246  0.57617053  0.32892292     0.15000
C976        C  0.87154449  0.53307146  0.39418661    -0.24000
H977        H  0.90950293  0.72364452  0.36744682     0.05200
H978        H  0.90007812  0.71240809  0.31264981     0.08400
H979        H  0.95267745  0.70199025  0.33509505     0.08400
H980        H  0.86365170  0.53215335  0.42850477     0.08400
H981        H  0.89875347  0.51135226  0.38695451     0.08400
H982        H  0.84241084  0.52177898  0.37667890     0.05200
C983        C  0.13549438  0.62919165  0.62836132    -0.20600
C984        C  0.10892043  0.63635944  0.66418196    -0.07200
C985        C  0.06309449  0.63151574  0.66010285     0.13700
C986        C  0.04605066  0.61519084  0.62253734    -0.20700
C987        C  0.07234359  0.60750854  0.58683948    -0.07200
C988        C  0.11772560  0.61522595  0.58980775     0.13700
C989        C  0.14763404  0.60785787  0.55270256    -0.24000
H990        H  0.17062382  0.63300364  0.63093069     0.15000
H991        H  0.01211390  0.60645942  0.62253124     0.15000
C992        C  0.03081876  0.64338424  0.69430972    -0.24000
H993        H  0.18201829  0.61632885  0.56001697     0.05200
H994        H  0.13666568  0.62719011  0.52564905     0.08400
H995        H  0.14714001  0.57456168  0.54378213     0.08400
H996        H  0.04585049  0.66113393  0.72050064     0.08400
H997        H  0.01497725  0.61506233  0.70715321     0.08400
H998        H  0.00511227  0.66375125  0.68077135     0.05200
C999        C  0.92188446  0.38173610  0.61301653    -0.20600
C1000       C  0.92315684  0.42495674  0.61876807    -0.07200
C1001       C  0.90860993  0.44231609  0.65721121     0.13700
C1002       C  0.89356827  0.41591650  0.68928676    -0.20700
C1003       C  0.89453554  0.37245538  0.68460243    -0.07200
C1004       C  0.90857599  0.35512098  0.64579564     0.13700
C1005       C  0.91258412  0.30885429  0.63974895    -0.24000
H1006       H  0.93421744  0.36861326  0.58369223     0.15000
H1007       H  0.88248831  0.42923256  0.71893017     0.15000
C1008       C  0.90928674  0.48852819  0.66456812    -0.24000
H1009       H  0.92701385  0.30096313  0.60844496     0.05200
H1010       H  0.87991486  0.29407300  0.64140885     0.08400
H1011       H  0.93407686  0.29554904  0.66460313     0.08400
H1012       H  0.88949690  0.50425950  0.63995532     0.08400
H1013       H  0.94338306  0.50025628  0.66317783     0.08400
H1014       H  0.89551126  0.49688585  0.69602143     0.05200
C1015       C  0.11988286  0.37712986  0.55856089    -0.20600
C1016       C  0.08802712  0.39759094  0.58273239    -0.07200
C1017       C  0.08190077  0.38709320  0.62570527     0.13700
C1018       C  0.10592012  0.35424565  0.64292699    -0.20700
C1019       C  0.13507948  0.33136905  0.61783677    -0.07200
C1020       C  0.14367547  0.34389905  0.57573222     0.13700
C1021       C  0.17756174  0.32212831  0.54896177    -0.24000
H1022       H  0.12473364  0.38598502  0.52576768     0.15000
H1023       H  0.09977962  0.34456728  0.67527278     0.15000
C1024       C  0.04856650  0.40914241  0.65285845    -0.24000
H1025       H  0.18108839  0.33697478  0.51740655     0.05200
H1026       H  0.16828691  0.28926177  0.54383975     0.08400
H1027       H  0.20980208  0.32335270  0.56505960     0.08400
H1028       H  0.01535300  0.40379524  0.63995342     0.08400
H1029       H  0.05557948  0.44293566  0.65340345     0.08400
H1030       H  0.04888399  0.39764511  0.68600205     0.05200
C1031       C  0.92014910  0.34787489  0.35515047    -0.20600
C1032       C  0.88996216  0.32653029  0.38103553    -0.07200
C1033       C  0.87753453  0.34496462  0.41979625     0.13700
C1034       C  0.89549720  0.38342142  0.43184976    -0.20700
C1035       C  0.92704465  0.40454130  0.40706934    -0.07200
C1036       C  0.93927362  0.38615332  0.36784717     0.13700
C1037       C  0.97261382  0.40624967  0.33936907    -0.24000
H1038       H  0.92960600  0.33398993  0.32523918     0.15000
H1039       H  0.88538344  0.39644255  0.46195039     0.15000
C1040       C  0.84495464  0.32413758  0.44873767    -0.24000
H1041       H  0.97751979  0.38834010  0.30967425     0.05200
H1042       H  0.00466131  0.40800295  0.35569107     0.08400
H1043       H  0.96152737  0.43796295  0.33072065     0.08400
H1044       H  0.85813284  0.29392168  0.45973952     0.08400
H1045       H  0.81374442  0.31893139  0.43162225     0.08400
H1046       H  0.83774022  0.34321505  0.47721693     0.05200
C1047       C  0.85073110  0.63609895  0.60707532    -0.20600
C1048       C  0.87514318  0.67262008  0.61435014    -0.07200
C1049       C  0.92058072  0.67196937  0.60546868     0.13700
C1050       C  0.93924428  0.63653306  0.58732142    -0.20700
C1051       C  0.91586621  0.59956925  0.58156017    -0.07200
C1052       C  0.87056480  0.59956636  0.59091209     0.13700
C1053       C  0.84237747  0.56195580  0.58400203    -0.24000
H1054       H  0.81591931  0.63609960  0.61379498     0.15000
H1055       H  0.97262263  0.63848152  0.57662437     0.15000
C1056       C  0.95075871  0.70736368  0.61696156    -0.24000
H1057       H  0.81606800  0.56954498  0.56107325     0.05200
H1058       H  0.82716028  0.55256286  0.61447403     0.08400
H1059       H  0.86114205  0.53512708  0.57144522     0.08400
H1060       H  0.94550477  0.71641945  0.65050587     0.08400
H1061       H  0.94574205  0.73441506  0.59601352     0.08400
H1062       H  0.98573001  0.69845382  0.61344221     0.05200
C1063       C  0.05889287  0.62083424  0.36450199    -0.20600
C1064       C  0.07898145  0.59635842  0.39577685    -0.07200
C1065       C  0.11928918  0.60991711  0.41317060     0.13700
C1066       C  0.13706845  0.64821383  0.40052036    -0.20700
C1067       C  0.11590371  0.67342943  0.37078495    -0.07200
C1068       C  0.07686745  0.65917617  0.35185992     0.13700
C1069       C  0.05401717  0.68464054  0.31862412    -0.24000
H1070       H  0.02771785  0.61105202  0.35158932     0.15000
H1071       H  0.16778202  0.65864977  0.41391884     0.15000
C1072       C  0.14479177  0.58367564  0.44389828    -0.24000
H1073       H  0.02427055  0.66882875  0.30656634     0.05200
H1074       H  0.07648011  0.68994140  0.29147973     0.08400
H1075       H  0.04400526  0.71502236  0.33215886     0.08400
H1076       H  0.15727937  0.55585366  0.42743145     0.08400
H1077       H  0.12420661  0.57421905  0.47104296     0.08400
H1078       H  0.17367697  0.60044650  0.45654113     0.05200
C1079       C  0.38728688  0.08916610  0.61391262    -0.20600
C1080       C  0.43263442  0.09347315  0.60735962    -0.07200
C1081       C  0.45704480  0.11818922  0.63560535     0.13700
C1082       C  0.43585813  0.13593352  0.67107168    -0.20700
C1083       C  0.39076334  0.13009195  0.67810334    -0.07200
C1084       C  0.36613368  0.10704803  0.64873685     0.13700
C1085       C  0.31775422  0.09981662  0.65495151    -0.24000
H1086       H  0.36822662  0.07081590  0.59187779     0.15000
H1087       H  0.45461813  0.15359949  0.69387663     0.15000
C1088       C  0.50541253  0.12396932  0.62963374    -0.24000
H1089       H  0.30384518  0.07998586  0.62957827     0.05200
H1090       H  0.29997296  0.12987728  0.65450514     0.08400
H1091       H  0.31193569  0.08412552  0.68574214     0.08400
H1092       H  0.51191245  0.13957317  0.59893938     0.08400
H1093       H  0.52154547  0.09314778  0.62991734     0.08400
H1094       H  0.51987741  0.14316891  0.65521644     0.05200
C1095       C  0.54218707  0.88467268  0.63566599    -0.20600
C1096       C  0.57059171  0.89892179  0.60405805    -0.07200
C1097       C  0.61588092  0.89032790  0.60747297     0.13700
C1098       C  0.63192465  0.87047148  0.64374247    -0.20700
C1099       C  0.60399467  0.85922098  0.67711414    -0.07200
C1100       C  0.55820633  0.86507930  0.67232698     0.13700
C1101       C  0.52533072  0.85110445  0.70498952    -0.24000
H1102       H  0.50756489  0.88979001  0.63243280     0.15000
H1103       H  0.66688658  0.86560696  0.64698192     0.15000
C1104       C  0.64758963  0.90248249  0.57293873    -0.24000
H1105       H  0.50095804  0.83035546  0.68986306     0.05200
H1106       H  0.50799061  0.87854313  0.71822208     0.08400
H1107       H  0.54040060  0.83355182  0.73136143     0.08400
H1108       H  0.64844663  0.93672290  0.56941657     0.08400
H1109       H  0.63739695  0.88822488  0.54251139     0.08400
H1110       H  0.68142494  0.89186201  0.57994993     0.05200
C1111       C  0.36894577  0.13263126  0.46045213    -0.20600
C1112       C  0.40691489  0.12029491  0.43880386    -0.07200
C1113       C  0.41044847  0.12847953  0.39499772     0.13700
C1114       C  0.37480099  0.14581538  0.37325705    -0.20700
C1115       C  0.33544412  0.15500939  0.39421119    -0.07200
C1116       C  0.33362042  0.15090029  0.43895018     0.13700
C1117       C  0.29492592  0.16524041  0.46489306    -0.24000
H1118       H  0.36650525  0.12728544  0.49427839     0.15000
H1119       H  0.37641765  0.14881304  0.33911276     0.15000
C1120       C  0.44974598  0.11461300  0.37018147    -0.24000
H1121       H  0.30624298  0.18709705  0.48973582     0.05200
H1122       H  0.27917519  0.13817039  0.48040393     0.08400
H1123       H  0.27015034  0.18190068  0.44570948     0.08400
H1124       H  0.45162638  0.08044845  0.37251372     0.08400
H1125       H  0.47989982  0.12897655  0.38305885     0.08400
H1126       H  0.44726628  0.12299472  0.33616732     0.05200
C1127       C  0.36058952  0.87123548  0.61625699    -0.20600
C1128       C  0.33236167  0.84756614  0.59134404    -0.07200
C1129       C  0.34222858  0.84207972  0.54777104     0.13700
C1130       C  0.37846226  0.86284379  0.52993665    -0.20700
C1131       C  0.40483241  0.88916601  0.55447178    -0.07200
C1132       C  0.39636930  0.89210845  0.59876551     0.13700
C1133       C  0.42277094  0.91819680  0.62909399    -0.24000
H1134       H  0.35332478  0.87533609  0.64964599     0.15000
H1135       H  0.38441588  0.86043245  0.49616895     0.15000
C1136       C  0.31506432  0.81505556  0.51916095    -0.24000
H1137       H  0.43342702  0.89869692  0.65618294     0.05200
H1138       H  0.40206695  0.94385339  0.64151206     0.08400
H1139       H  0.45258465  0.93174830  0.61500502     0.08400
H1140       H  0.29966834  0.83442613  0.49420436     0.08400
H1141       H  0.28898179  0.79813637  0.53637542     0.08400
H1142       H  0.33642629  0.79146949  0.50385717     0.05200
C1143       C  0.63937396  0.06416590  0.40045270    -0.20600
C1144       C  0.59563467  0.05106404  0.39551578    -0.07200
C1145       C  0.57808184  0.05052434  0.35414700     0.13700
C1146       C  0.60174640  0.06868284  0.32063096    -0.20700
C1147       C  0.64454168  0.08415305  0.32601776    -0.07200
C1148       C  0.66434307  0.07956275  0.36631028     0.13700
C1149       C  0.71229694  0.08831893  0.37339031    -0.24000
H1150       H  0.65441704  0.06242502  0.43140945     0.15000
H1151       H  0.58665786  0.07030937  0.28967889     0.15000
C1152       C  0.53611971  0.02819832  0.34428496    -0.24000
H1153       H  0.72316349  0.07761783  0.40510147     0.05200
H1154       H  0.71911305  0.12197357  0.37185414     0.08400
H1155       H  0.73227184  0.07163709  0.34936483     0.08400
H1156       H  0.50856680  0.04261088  0.36120408     0.08400
H1157       H  0.53893939  0.99521292  0.35411163     0.08400
H1158       H  0.52844547  0.02892003  0.30994308     0.05200
C1159       C  0.44959326  0.91224435  0.36882431    -0.20600
C1160       C  0.42742413  0.94499501  0.38929617    -0.07200
C1161       C  0.38422994  0.95489313  0.37592065     0.13700
C1162       C  0.36435625  0.93122254  0.34368120    -0.20700
C1163       C  0.38615800  0.89774593  0.32449286    -0.07200
C1164       C  0.42953327  0.88865195  0.33674679     0.13700
C1165       C  0.45467835  0.85396961  0.31583575    -0.24000
H1166       H  0.48244308  0.90415769  0.37879653     0.15000
H1167       H  0.33161675  0.93901992  0.33312045     0.15000
C1168       C  0.35915948  0.99099158  0.39448842    -0.24000
H1169       H  0.48813476  0.85071758  0.32914190     0.05200
H1170       H  0.45779858  0.86017445  0.28138913     0.08400
H1171       H  0.43714935  0.82417364  0.32057328     0.08400
H1172       H  0.37890643  0.01979063  0.39185145     0.08400
H1173       H  0.35108517  0.98494880  0.42816356     0.08400
H1174       H  0.32774024  0.99630940  0.37768709     0.05200
C1175       C  0.61530982  0.09571453  0.61059364    -0.20600
C1176       C  0.60836339  0.10544403  0.56757398    -0.07200
C1177       C  0.63680115  0.13428930  0.54795492     0.13700
C1178       C  0.67209789  0.15096577  0.57125233    -0.20700
C1179       C  0.67968377  0.13964249  0.61367461    -0.07200
C1180       C  0.65031048  0.11220068  0.63371553     0.13700
C1181       C  0.65735022  0.09781041  0.67865351    -0.24000
H1182       H  0.59448435  0.07305812  0.62591365     0.15000
H1183       H  0.69495226  0.17178086  0.55583342     0.15000
C1184       C  0.63189168  0.14564025  0.50201312    -0.24000
H1185       H  0.63263596  0.07445834  0.68847986     0.05200
H1186       H  0.65463757  0.12443202  0.70075703     0.08400
H1187       H  0.69022933  0.08336411  0.68169377     0.08400
H1188       H  0.59941273  0.16024210  0.49677285     0.08400
H1189       H  0.63491619  0.11741156  0.48211337     0.08400
H1190       H  0.65742049  0.16795225  0.49163397     0.05200
C1191       C  0.62965557  0.92720361  0.40045584    -0.20600
C1192       C  0.60756437  0.89764210  0.42513908    -0.07200
C1193       C  0.61751303  0.85512721  0.41979128     0.13700
C1194       C  0.65114558  0.84352413  0.39149915    -0.20700
C1195       C  0.67458427  0.87346812  0.36836860    -0.07200
C1196       C  0.66275212  0.91572870  0.37202728     0.13700
C1197       C  0.68473561  0.94889059  0.34588709    -0.24000
H1198       H  0.62107956  0.95972699  0.40363062     0.15000
H1199       H  0.66045759  0.81115370  0.38872394     0.15000
C1200       C  0.59435213  0.82229959  0.44521702    -0.24000
H1201       H  0.66945077  0.97983611  0.35091256     0.05200
H1202       H  0.68203768  0.94111319  0.31175484     0.08400
H1203       H  0.71968498  0.95153258  0.35460386     0.08400
H1204       H  0.55894275  0.82234202  0.43745197     0.08400
H1205       H  0.59862342  0.82849547  0.47954446     0.08400
H1206       H  0.60744359  0.79081820  0.43832868     0.05200
loop_ 
_geom_bond_atom_site_label_1 
_geom_bond_atom_site_label_2 
_geom_bond_distance 
_geom_bond_site_symmetry_2 
_ccdc_geom_bond_type 
O1            C9   1.300       .  A
O1          Co21   2.088       .  S
O2           C10   1.300       .  A
O2          Co22   2.097       .  S
O3           C11   1.264       .  A
O3          Co23   1.977       .  S
O4           C12   1.265       .  A
O4          Co24   1.990       .  S
O5           C11   1.267       .  A
O5          Co22   2.014   1_565  S
O6           C12   1.267       .  A
O6          Co21   2.012   1_545  S
O7           C10   1.272       .  A
O7          Co24   1.892       .  S
O8            C9   1.272       .  A
O8          Co23   1.892       .  S
C9         C1192   1.480       .  S
C10        C1112   1.482       .  S
C11        C1160   1.498       .  S
C12        C1144   1.503       .  S
O13          C26   1.253       .  A
O13         Co21   1.953   1_545  S
O14          C27   1.250       .  A
O14         Co22   1.944   1_565  S
O15          C28   1.261       .  A
O15         Co23   2.032       .  S
O16          C29   1.266       .  A
O16         Co24   2.044       .  S
O17          C29   1.246       .  A
O17         Co22   1.928       .  S
O18          C28   1.245       .  A
O18         Co21   1.941       .  S
O19          C26   1.274       .  A
O19         Co24   2.051       .  S
O20          C27   1.271       .  A
O20         Co23   2.036       .  S
Co21         O25   2.089   1_565  S
Co22         O25   2.098       .  S
Co23         O25   2.012   1_565  S
Co24         O25   2.003       .  S
C26        C1176   1.497       .  S
C27        C1131   1.487       .  S
C28        C1096   1.480       .  S
C29        C1080   1.485       .  S
O30          C38   1.269       .  A
O30         Co50   1.903       .  S
O31          C39   1.261       .  A
O31         Co51   1.965       .  S
O32          C40   1.274       .  A
O32         Co52   2.072   1_655  S
O33          C41   1.284       .  A
O33         Co53   2.057   1_655  S
O34          C40   1.252       .  A
O34         Co51   1.955       .  S
O35          C41   1.264       .  A
O35         Co50   1.974       .  S
O36          C39   1.269       .  A
O36         Co53   2.002   1_655  S
O37          C38   1.292       .  A
O37         Co52   2.078   1_655  S
C38         C968   1.483       .  S
C39        C1000   1.470       .  S
C40        C1035   1.520       .  S
C41        C1051   1.493       .  S
O42          C55   1.267       .  A
O42         Co50   2.042   1_455  S
O43          C56   1.282       .  A
O43         Co51   2.051   1_455  S
O44          C57   1.274       .  A
O44         Co52   1.934       .  S
O45          C58   1.260       .  A
O45         Co53   1.966       .  S
O46          C58   1.268       .  A
O46         Co51   2.004   1_455  S
O47          C57   1.288       .  A
O47         Co50   2.072   1_455  S
O48          C55   1.248       .  A
O48         Co53   1.962       .  S
O49          C56   1.264       .  A
O49         Co52   1.962       .  S
Co50         O54   2.024   1_655  S
Co51         O54   2.030   1_655  S
Co52         O54   2.035       .  S
Co53         O54   2.030       .  S
C55         C987   1.488       .  S
C56         C952   1.504       .  S
C57        C1064   1.489       .  S
C58        C1016   1.461       .  S
O59          C67   1.268       .  A
O59         Co79   2.009       .  S
O60          C68   1.292       .  A
O60         Co80   2.092       .  S
O61          C69   1.257       .  A
O61         Co81   1.959       .  S
O62          C70   1.267       .  A
O62         Co82   1.952       .  S
O63          C69   1.271       .  A
O63         Co80   2.037   1_556  S
O64          C70   1.286       .  A
O64         Co79   2.061   1_554  S
O65          C68   1.263       .  A
O65         Co82   1.912       .  S
O66          C67   1.258       .  A
O66         Co81   1.969       .  S
C67         C936   1.485       .  S
C68         C856   1.492       .  S
C69         C840   1.492       .  S
C70         C827   1.498       .  S
O71          C84   1.248       .  A
O71         Co79   1.965   1_554  S
O72          C85   1.260       .  A
O72         Co80   1.972   1_556  S
O73          C86   1.276       .  A
O73         Co81   2.042       .  S
O74          C87   1.295       .  A
O74         Co82   2.086       .  S
O75          C87   1.271       .  A
O75         Co80   1.911       .  S
O76          C86   1.257       .  A
O76         Co79   1.950       .  S
O77          C84   1.260       .  A
O77         Co82   2.031       .  S
O78          C85   1.277       .  A
O78         Co81   2.039       .  S
Co79         O83   2.022       .  S
Co80         O83   2.020   1_554  S
Co81         O83   2.043       .  S
Co82         O83   2.018   1_554  S
C84         C923   1.494       .  S
C85         C875   1.500       .  S
C86         C907   1.480       .  S
C87         C888   1.496       .  S
C88         C808   1.478       .  S
C88          C89   1.400       .  A
C88          C93   1.403       .  A
C89          C90   1.402       .  A
C89          H94   1.084       .  S
C90         C101   1.473       .  S
C90          C91   1.406       .  A
C91          C92   1.407       .  A
C91          H95   1.084       .  S
C92        C1099   1.488       .  S
C92          C93   1.405       .  A
C93          H96   1.084       .  S
C97         C116   1.485       .  S
C97          N98   1.368       .  A
C97         N102   1.359       .  A
N98          C99   1.368       .  A
C99         C105   1.485       .  S
C99         N100   1.358       .  A
N100        C101   1.354       .  A
C101        N102   1.356       .  A
C103        C792   1.494       .  S
C103        C104   1.403       .  A
C103        C108   1.402       .  A
C104        C105   1.413       .  A
C104        H109   1.084       .  S
C105        C106   1.409       .  A
C106        C107   1.410       .  A
C106        H110   1.083       .  S
C107       C1048   1.499       .  S
C107        C108   1.411       .  A
C108        H111   1.081       .  S
C112        C776   1.496       .  S
C112        C113   1.409       .  A
C112        C117   1.413       .  A
C113        C114   1.405       .  A
C113        H118   1.084       .  S
C114        C872   1.488       .  S
C114        C115   1.402       .  A
C115        C116   1.408       .  A
C115        H119   1.084       .  S
C116        C117   1.409       .  A
C117        H120   1.083       .  S
C121        C140   1.468       .  S
C121        N122   1.354       .  A
C121        N126   1.358       .  A
N122        C123   1.356       .  A
C123        C149   1.468       .  S
C123        N124   1.362       .  A
N124        C125   1.360       .  A
C125        C129   1.474       .  S
C125        N126   1.357       .  A
C127        C939   1.481       .  S
C127        C128   1.400       .  A
C127        C132   1.398       .  A
C128        C129   1.404       .  A
C128        H133   1.084       .  S
C129        C130   1.408       .  A
C130        C131   1.408       .  A
C130        H134   1.083       .  S
C131        C760   1.487       .  S
C131        C132   1.404       .  A
C132        H135   1.084       .  S
C136        C744   1.473       .  S
C136        C137   1.403       .  A
C136        C141   1.395       .  A
C137        C138   1.403       .  A
C137        H142   1.084       .  S
C138       C1083   1.481       .  S
C138        C139   1.406       .  A
C139        C140   1.406       .  A
C139        H143   1.084       .  S
C140        C141   1.398       .  A
C141        H144   1.084       .  S
C145       C1019   1.472       .  S
C145        C146   1.400       .  A
C145        C150   1.400       .  A
C146        C147   1.398       .  A
C146        H151   1.085       .  S
C147        C731   1.478       .  S
C147        C148   1.401       .  A
C148        C149   1.407       .  A
C148        H152   1.084       .  S
C149        C150   1.402       .  A
C150        H153   1.084       .  S
O154        C162   1.249       .  A
O154       Co174   1.948   1_565  S
O155        C163   1.291       .  A
O155       Co175   2.068   1_565  S
O156        C164   1.256       .  A
O156       Co176   1.976       .  S
O157        C165   1.266       .  A
O157       Co177   1.989   1_556  S
O158        C164   1.257       .  A
O158       Co175   1.993   1_565  S
O159        C165   1.268       .  A
O159       Co174   2.019   1_565  S
O160        C163   1.269       .  A
O160       Co177   1.900       .  S
O161        C162   1.264       .  A
O161       Co176   2.016   1_556  S
C162        C811   1.467       .  S
C163        C683   1.465       .  S
C164        C635   1.500       .  S
C165        C648   1.501       .  S
O166        C179   1.253       .  A
O166       Co174   1.941       .  S
O167        C180   1.289       .  A
O167       Co175   2.064       .  S
O168        C181   1.267       .  A
O168       Co176   1.993   1_546  S
O169        C182   1.261       .  A
O169       Co177   2.026   1_545  S
O170        C182   1.255       .  A
O170       Co175   1.964       .  S
O171        C181   1.269       .  A
O171       Co174   2.007       .  S
O172        C179   1.274       .  A
O172       Co177   2.032   1_546  S
O173        C180   1.269       .  A
O173       Co176   1.916   1_545  S
Co174       O178   2.039   1_545  S
Co175       O178   2.174   1_544  S
Co176       O178   1.985   1_554  S
Co177       O178   1.999   1_554  S
C179        C747   1.469       .  S
C180        C664   1.484       .  S
C181        C712   1.490       .  S
C182        C699   1.506       .  S
C183        C193   1.491       .  S
C183        N184   1.368       .  A
C183        N188   1.368       .  A
N184        C185   1.365       .  A
C185        C200   1.485       .  S
C185        N186   1.352       .  A
N186        C187   1.354       .  A
C187        C209   1.487       .  S
C187        N188   1.362       .  A
C189        C904   1.484       .  S
C189        C190   1.401       .  A
C189        C194   1.405       .  A
C190        C191   1.402       .  A
C190        H195   1.084       .  S
C191        C651   1.491       .  S
C191        C192   1.413       .  A
C192        C193   1.415       .  A
C192        H196   1.083       .  S
C193        C194   1.409       .  A
C194        H197   1.084       .  S
C198        C616   1.493       .  S
C198        C199   1.405       .  A
C198        C203   1.405       .  A
C199        C200   1.411       .  A
C199        H204   1.084       .  S
C200        C201   1.404       .  A
C201        C202   1.410       .  A
C201        H205   1.084       .  S
C202       C1128   1.488       .  S
C202        C203   1.407       .  A
C203        H206   1.084       .  S
C207        C603   1.490       .  S
C207        C208   1.411       .  A
C207        C212   1.405       .  A
C208        C209   1.410       .  A
C208        H213   1.083       .  S
C209        C210   1.409       .  A
C210        C211   1.400       .  A
C210        H214   1.083       .  S
C211        C984   1.495       .  S
C211        C212   1.406       .  A
C212        H215   1.084       .  S
C216        C235   1.481       .  S
C216        N217   1.365       .  A
C216        N221   1.362       .  A
N217        C218   1.363       .  A
C218        C226   1.495       .  S
C218        N219   1.364       .  A
N219        C220   1.358       .  A
C220        C242   1.489       .  S
C220        N221   1.360       .  A
C222       C1032   1.508       .  S
C222        C223   1.418       .  A
C222        C227   1.416       .  A
C223        C224   1.412       .  A
C223        H228   1.083       .  S
C224        C584   1.495       .  S
C224        C225   1.397       .  A
C225        C226   1.404       .  A
C225        H229   1.084       .  S
C226        C227   1.416       .  A
C227        H230   1.083       .  S
C231        C571   1.481       .  S
C231        C232   1.398       .  A
C231        C236   1.405       .  A
C232        C233   1.400       .  A
C232        H237   1.085       .  S
C233        C859   1.483       .  S
C233        C234   1.406       .  A
C234        C235   1.411       .  A
C234        H238   1.084       .  S
C235        C236   1.409       .  A
C236        H239   1.084       .  S
C240        C667   1.488       .  S
C240        C241   1.405       .  A
C240        C245   1.404       .  A
C241        C242   1.407       .  A
C241        H246   1.084       .  S
C242        C243   1.411       .  A
C243        C244   1.414       .  A
C243        H247   1.080       .  S
C244       C1147   1.506       .  S
C244        C245   1.409       .  A
C245        H248   1.083       .  S
O249        C257   1.252       .  A
O249       Co269   1.958       .  S
O250        C258   1.255       .  A
O250       Co270   1.955       .  S
O251        C259   1.264       .  A
O251       Co271   2.030   1_556  S
O252        C260   1.258       .  A
O252       Co272   2.024   1_556  S
O253        C259   1.251       .  A
O253       Co270   1.953       .  S
O254        C260   1.244       .  A
O254       Co269   1.917       .  S
O255        C258   1.270   1_554  A
O255       Co272   2.029   1_455  S
O256        C257   1.272   1_554  A
O256       Co271   2.050   1_655  S
C257        C779   1.493       .  S
C258        C763   1.481       .  S
C259        C600   1.505       .  S
C260        C507   1.483       .  S
O261        C274   1.304       .  A
O261       Co269   2.117   1_554  S
O262        C275   1.299       .  A
O262       Co270   2.089   1_554  S
O263        C276   1.267       .  A
O263       Co271   1.976   1_655  S
O264        C277   1.264       .  A
O264       Co272   1.975   1_455  S
O265        C277   1.271       .  A
O265       Co270   2.021   1_554  S
O266        C276   1.265       .  A
O266       Co269   1.996   1_554  S
O267        C274   1.269       .  A
O267       Co272   1.874       .  S
O268        C275   1.274       .  A
O268       Co271   1.895       .  S
Co269       O273   2.079   1_655  S
Co270       O273   2.085       .  S
Co271       O273   2.001   1_554  S
Co272       O273   1.987   1_654  S
C274        C568   1.474       .  S
C275        C555   1.482       .  S
C276        C520   1.491       .  S
C277        C539   1.504       .  S
C278        C488   1.492       .  S
C278        C279   1.409       .  A
C278        C283   1.401       .  A
C279        C280   1.410       .  A
C279        H284   1.084       .  S
C280        C287   1.480       .  S
C280        C281   1.408       .  A
C281        C282   1.409       .  A
C281        H285   1.084       .  S
C282       C1115   1.490       .  S
C282        C283   1.401       .  A
C283        H286   1.083       .  S
C287        N288   1.358       .  A
C287        N292   1.364       .  A
N288        C289   1.359       .  A
C289        C297   1.490       .  S
C289        N290   1.363       .  A
N290        C291   1.365       .  A
C291        C304   1.495       .  S
C291        N292   1.366       .  A
C293        C536   1.494       .  S
C293        C294   1.404       .  A
C293        C298   1.410       .  A
C294        C295   1.401       .  A
C294        H299   1.085       .  S
C295        C955   1.485       .  S
C295        C296   1.403       .  A
C296        C297   1.412       .  A
C296        H300   1.083       .  S
C297        C298   1.412       .  A
C298        H301   1.083       .  S
C302        C824   1.488       .  S
C302        C303   1.406       .  A
C302        C307   1.401       .  A
C303        C304   1.414       .  A
C303        H308   1.084       .  S
C304        C305   1.416       .  A
C305        C306   1.411       .  A
C305        H309   1.083       .  S
C306        C696   1.490       .  S
C306        C307   1.401       .  A
C307        H310   1.085       .  S
C311        C319   1.470       .  S
C311        N312   1.348       .  A
C311        N316   1.356       .  A
N312        C313   1.354       .  A
C313        C337   1.482       .  S
C313        N314   1.371       .  A
N314        C315   1.371       .  A
C315        C330   1.493       .  S
C315        N316   1.361       .  A
C317       C1003   1.484       .  S
C317        C318   1.404       .  A
C317        C322   1.398       .  A
C318        C319   1.409       .  A
C318        H323   1.082       .  S
C319        C320   1.401       .  A
C320        C321   1.397       .  A
C320        H324   1.084       .  S
C321        C504   1.466       .  S
C321        C322   1.398       .  A
C322        H325   1.085       .  S
C326        C715   1.491       .  S
C326        C327   1.405       .  A
C326        C331   1.414       .  A
C327        C328   1.402       .  A
C327        H332   1.084       .  S
C328        C843   1.486       .  S
C328        C329   1.401       .  A
C329        C330   1.412       .  A
C329        H333   1.084       .  S
C330        C331   1.413       .  A
C331        H334   1.083       .  S
C335       C1179   1.490       .  S
C335        C336   1.411       .  A
C335        C340   1.408       .  A
C336        C337   1.406       .  A
C336        H341   1.083       .  S
C337        C338   1.411       .  A
C338        C339   1.400       .  A
C338        H342   1.084       .  S
C339        C472   1.488       .  S
C339        C340   1.403       .  A
C340        H343   1.084       .  S
C344        C352   1.482       .  S
C344        N345   1.356       .  A
C344        N349   1.365       .  A
N345        C346   1.354       .  A
C346        C361   1.480       .  S
C346        N347   1.357       .  A
N347        C348   1.364       .  A
C348        C370   1.489       .  S
C348        N349   1.367       .  A
C350       C1195   1.483       .  S
C350        C351   1.408       .  A
C350        C355   1.400       .  A
C351        C352   1.410       .  A
C351        H356   1.083       .  S
C352        C353   1.412       .  A
C353        C354   1.401       .  A
C353        H357   1.084       .  S
C354        C456   1.480       .  S
C354        C355   1.397       .  A
C355        H358   1.085       .  S
C359        C523   1.481       .  S
C359        C360   1.409       .  A
C359        C364   1.397       .  A
C360        C361   1.410       .  A
C360        H365   1.084       .  S
C361        C362   1.408       .  A
C362        C363   1.399       .  A
C362        H366   1.084       .  S
C363        C971   1.474       .  S
C363        C364   1.396       .  A
C364        H367   1.085       .  S
C368        C632   1.484       .  S
C368        C369   1.411       .  A
C368        C373   1.402       .  A
C369        C370   1.412       .  A
C369        H374   1.083       .  S
C370        C371   1.408       .  A
C371        C372   1.401       .  A
C371        H375   1.084       .  S
C372        C891   1.482       .  S
C372        C373   1.402       .  A
C373        H376   1.084       .  S
C377        C394   1.481       .  S
C377        N378   1.360       .  A
C377        N382   1.361       .  A
N378        C379   1.359       .  A
C379        C403   1.486       .  S
C379        N380   1.363       .  A
N380        C381   1.366       .  A
C381        C385   1.483       .  S
C381        N382   1.358       .  A
C383       C1163   1.490       .  S
C383        C384   1.413       .  A
C383        C388   1.400       .  A
C384        C385   1.415       .  A
C384        H389   1.083       .  S
C385        C386   1.402       .  A
C386        C387   1.400       .  A
C386        H390   1.083       .  S
C387        C680   1.483       .  S
C387        C388   1.403       .  A
C388        H391   1.084       .  S
C392       C1067   1.489       .  S
C392        C393   1.403       .  A
C392        C397   1.409       .  A
C393        C394   1.406       .  A
C393        H398   1.084       .  S
C394        C395   1.406       .  A
C395        C396   1.403       .  A
C395        H399   1.083       .  S
C396        C443   1.491       .  S
C396        C397   1.411       .  A
C397        H400   1.084       .  S
C401        C920   1.489       .  S
C401        C402   1.410       .  A
C401        C406   1.403       .  A
C402        C403   1.411       .  A
C402        H407   1.083       .  S
C403        C404   1.411       .  A
C404        C405   1.405       .  A
C404        H408   1.084       .  S
C405        C552   1.486       .  S
C405        C406   1.401       .  A
C406        H409   1.085       .  S
O410        C418   1.270       .  A
O410       Co430   1.906       .  S
O411        C419   1.259       .  A
O411       Co431   1.963       .  S
O412        C420   1.266       .  A
O412       Co432   2.052   1_545  S
O413        C421   1.280       .  A
O413       Co433   2.041       .  S
O414        C420   1.246       .  A
O414       Co431   1.951   1_655  S
O415        C421   1.265       .  A
O415       Co430   1.974   1_455  S
O416        C419   1.273       .  A
O416       Co433   2.021   1_545  S
O417        C418   1.294       .  A
O417       Co432   2.084       .  S
C418        C459   1.488       .  S
C419        C491   1.481       .  S
C420        C587   1.499       .  S
C421        C440   1.507       .  S
O422        C435   1.270       .  A
O422       Co430   2.030   1_455  S
O423        C436   1.286       .  A
O423       Co431   2.058   1_655  S
O424        C437   1.270       .  A
O424       Co432   1.926       .  S
O425        C438   1.264       .  A
O425       Co433   1.981   1_545  S
O426        C438   1.269       .  A
O426       Co431   2.009       .  S
O427        C437   1.292       .  A
O427       Co430   2.084       .  S
O428        C435   1.257       .  A
O428       Co433   1.970       .  S
O429        C436   1.268       .  A
O429       Co432   1.964   1_545  S
Co430       O434   2.022   1_665  S
Co431       O434   2.021       .  S
Co432       O434   2.040   1_665  S
Co433       O434   2.043   1_565  S
C435        C619   1.493       .  S
C436        C475   1.508       .  S
C437        C795   1.502       .  S
C438        C728   1.477       .  S
C439        C440   1.412       .  A
C439        C444   1.408       .  A
C439        H446   1.083       .  S
C440        C441   1.426       .  A
C441        C442   1.410       .  A
C441        C448   1.507       .  S
C442        C443   1.401       .  A
C442        H447   1.084       .  S
C443        C444   1.413       .  A
C444        C445   1.508       .  S
C445        H449   1.109       .  S
C445        H450   1.110       .  S
C445        H451   1.111       .  S
C448        H452   1.110       .  S
C448        H453   1.104   1_455  S
C448        H454   1.111       .  S
C455        C456   1.402       .  A
C455        C460   1.407       .  A
C455        H462   1.084       .  S
C456        C457   1.410       .  A
C457        C458   1.402       .  A
C457        C464   1.507       .  S
C458        C459   1.408       .  A
C458        H463   1.084       .  S
C459        C460   1.419       .  A
C460        C461   1.507       .  S
C461        H465   1.111       .  S
C461        H466   1.111       .  S
C461        H467   1.110       .  S
C464        H468   1.108       .  S
C464        H469   1.110       .  S
C464        H470   1.111       .  S
C471        C472   1.398       .  A
C471        C476   1.408       .  A
C471        H478   1.084       .  S
C472        C473   1.409       .  A
C473        C474   1.411       .  A
C473        C480   1.506       .  S
C474        C475   1.414       .  A
C474        H479   1.083       .  S
C475        C476   1.427       .  A
C476        C477   1.509       .  S
C477        H481   1.111       .  S
C477        H482   1.110       .  S
C477        H483   1.109       .  S
C480        H484   1.110       .  S
C480        H485   1.110       .  S
C480        H486   1.111       .  S
C487        C488   1.404       .  A
C487        C492   1.406       .  A
C487        H494   1.084       .  S
C488        C489   1.420       .  A
C489        C490   1.403       .  A
C489        C496   1.508       .  S
C490        C491   1.400       .  A
C490        H495   1.085       .  S
C491        C492   1.418       .  A
C492        C493   1.509       .  S
C493        H497   1.110       .  S
C493        H498   1.111       .  S
C493        H499   1.110       .  S
C496        H500   1.110       .  S
C496        H501   1.109       .  S
C496        H502   1.111       .  S
C503        C504   1.402       .  A
C503        C508   1.408       .  A
C503        H510   1.084       .  S
C504        C505   1.409       .  A
C505        C506   1.386       .  A
C505        C512   1.512       .  S
C506        C507   1.407       .  A
C506        H511   1.084       .  S
C507        C508   1.421       .  A
C508        C509   1.506       .  S
C509        H513   1.111       .  S
C509        H514   1.110       .  S
C509        H515   1.106       .  S
C512        H516   1.107       .  S
C512        H517   1.110       .  S
C512        H518   1.111       .  S
C519        C520   1.405       .  A
C519        C524   1.402       .  A
C519        H526   1.084       .  S
C520        C521   1.426       .  A
C521        C522   1.405       .  A
C521        C528   1.511       .  S
C522        C523   1.399       .  A
C522        H527   1.084       .  S
C523        C524   1.416       .  A
C524        C525   1.510       .  S
C525        H529   1.111       .  S
C525        H530   1.110       .  S
C525        H531   1.107       .  S
C528        H532   1.108       .  S
C528        H533   1.109       .  S
C528        H534   1.111       .  S
C535        C536   1.402       .  A
C535        C540   1.405       .  A
C535        H542   1.084       .  S
C536        C537   1.414       .  A
C537        C538   1.410       .  A
C537        C544   1.507       .  S
C538        C539   1.412       .  A
C538        H543   1.084       .  S
C539        C540   1.421       .  A
C540        C541   1.502       .  S
C541        H545   1.111   1_455  S
C541        H546   1.105   1_455  S
C541        H547   1.109   1_455  S
C544        H548   1.108       .  S
C544        H549   1.110       .  S
C544        H550   1.111       .  S
C551        C552   1.406       .  A
C551        C556   1.410       .  A
C551        H558   1.084       .  S
C552        C553   1.413       .  A
C553        C554   1.404       .  A
C553        C560   1.508       .  S
C554        C555   1.405       .  A
C554        H559   1.085       .  S
C555        C556   1.412       .  A
C556        C557   1.505       .  S
C557        H561   1.111       .  S
C557        H562   1.110       .  S
C557        H563   1.110       .  S
C560        H564   1.110       .  S
C560        H565   1.109       .  S
C560        H566   1.111       .  S
C567        C568   1.401       .  A
C567        C572   1.405       .  A
C567        H574   1.084       .  S
C568        C569   1.417       .  A
C569        C570   1.404       .  A
C569        C576   1.506       .  S
C570        C571   1.401       .  A
C570        H575   1.085       .  S
C571        C572   1.414       .  A
C572        C573   1.507       .  S
C573        H577   1.111       .  S
C573        H578   1.109       .  S
C573        H579   1.110       .  S
C576        H580   1.108       .  S
C576        H581   1.110       .  S
C576        H582   1.110       .  S
C583        C584   1.401       .  A
C583        C588   1.407       .  A
C583        H590   1.084       .  S
C584        C585   1.413       .  A
C585        C586   1.415       .  A
C585        C592   1.503       .  S
C586        C587   1.409       .  A
C586        H591   1.083       .  S
C587        C588   1.423       .  A
C588        C589   1.510       .  S
C589        H593   1.111       .  S
C589        H594   1.111       .  S
C589        H595   1.109       .  S
C592        H596   1.110       .  S
C592        H597   1.110       .  S
C592        H598   1.109       .  S
C599        C600   1.412       .  A
C599        C604   1.404       .  A
C599        H606   1.084       .  S
C600        C601   1.421       .  A
C601        C602   1.413       .  A
C601        C608   1.507       .  S
C602        C603   1.405       .  A
C602        H607   1.084       .  S
C603        C604   1.413       .  A
C604        C605   1.509       .  S
C605        H609   1.111       .  S
C605        H610   1.108       .  S
C605        H611   1.110       .  S
C608        H612   1.109       .  S
C608        H613   1.110       .  S
C608        H614   1.111       .  S
C615        C616   1.404       .  A
C615        C620   1.408       .  A
C615        H622   1.084       .  S
C616        C617   1.415       .  A
C617        C618   1.409       .  A
C617        C624   1.506       .  S
C618        C619   1.407       .  A
C618        H623   1.084       .  S
C619        C620   1.419       .  A
C620        C621   1.508       .  S
C621        H625   1.111       .  S
C621        H626   1.111       .  S
C621        H627   1.109       .  S
C624        H628   1.110       .  S
C624        H629   1.108       .  S
C624        H630   1.110       .  S
C631        C632   1.400       .  A
C631        C636   1.410       .  A
C631        H638   1.084       .  S
C632        C633   1.409       .  A
C633        C634   1.405       .  A
C633        C640   1.506       .  S
C634        C635   1.410       .  A
C634        H639   1.084       .  S
C635        C636   1.425       .  A
C636        C637   1.508       .  S
C637        H641   1.111       .  S
C637        H642   1.109       .  S
C637        H643   1.109       .  S
C640        H644   1.110       .  S
C640        H645   1.110       .  S
C640        H646   1.111       .  S
C647        C648   1.408       .  A
C647        C652   1.411       .  A
C647        H654   1.084       .  S
C648        C649   1.424       .  A
C649        C650   1.410       .  A
C649        C656   1.508       .  S
C650        C651   1.400       .  A
C650        H655   1.084       .  S
C651        C652   1.414       .  A
C652        C653   1.506       .  S
C653        H657   1.111       .  S
C653        H658   1.110       .  S
C653        H659   1.110       .  S
C656        H660   1.108       .  S
C656        H661   1.109       .  S
C656        H662   1.111       .  S
C663        C664   1.405       .  A
C663        C668   1.411       .  A
C663        H670   1.084   1_545  S
C664        C665   1.418       .  A
C665        C666   1.403       .  A
C665        C672   1.510       .  S
C666        C667   1.401       .  A
C666        H671   1.084       .  S
C667        C668   1.415       .  A
C668        C669   1.506       .  S
C669        H673   1.111   1_545  S
C669        H674   1.109       .  S
C669        H675   1.110       .  S
C672        H676   1.107       .  S
C672        H677   1.109       .  S
C672        H678   1.111       .  S
C679        C680   1.406       .  A
C679        C684   1.402       .  A
C679        H686   1.084       .  S
C680        C681   1.416       .  A
C681        C682   1.403       .  A
C681        C688   1.509       .  S
C682        C683   1.401       .  A
C682        H687   1.085       .  S
C683        C684   1.407       .  A
C684        C685   1.506   1_565  S
C685        H689   1.111       .  S
C685        H690   1.109       .  S
C685        H691   1.111       .  S
C688        H692   1.110       .  S
C688        H693   1.111       .  S
C688        H694   1.108       .  S
C695        C696   1.403       .  A
C695        C700   1.414       .  A
C695        H702   1.084       .  S
C696        C697   1.412       .  A
C697        C698   1.404       .  A
C697        C704   1.508       .  S
C698        C699   1.410       .  A
C698        H703   1.083       .  S
C699        C700   1.426       .  A
C700        C701   1.509       .  S
C701        H705   1.111       .  S
C701        H706   1.109       .  S
C701        H707   1.107   1_554  S
C704        H708   1.108       .  S
C704        H709   1.110       .  S
C704        H710   1.111       .  S
C711        C712   1.405       .  A
C711        C716   1.408       .  A
C711        H718   1.084       .  S
C712        C713   1.417       .  A
C713        C714   1.412       .  A
C713        C720   1.506       .  S
C714        C715   1.404       .  A
C714        H719   1.084       .  S
C715        C716   1.414       .  A
C716        C717   1.506       .  S
C717        H721   1.111       .  S
C717        H722   1.110       .  S
C717        H723   1.109       .  S
C720        H724   1.110       .  S
C720        H725   1.108   1_556  S
C720        H726   1.111       .  S
C727        C728   1.403       .  A
C727        C732   1.408       .  A
C727        H734   1.084       .  S
C728        C729   1.416       .  A
C729        C730   1.401       .  A
C729        C736   1.507       .  S
C730        C731   1.399       .  A
C730        H735   1.085       .  S
C731        C732   1.413       .  A
C732        C733   1.506       .  S
C733        H737   1.111       .  S
C733        H738   1.110       .  S
C733        H739   1.110       .  S
C736        H740   1.107       .  S
C736        H741   1.110       .  S
C736        H742   1.111       .  S
C743        C744   1.398       .  A
C743        C748   1.397       .  A
C743        H750   1.085       .  S
C744        C745   1.414       .  A
C745        C746   1.404       .  A
C745        C752   1.507       .  S
C746        C747   1.403       .  A
C746        H751   1.085       .  S
C747        C748   1.419       .  A
C748        C749   1.512       .  S
C749        H753   1.111       .  S
C749        H754   1.107       .  S
C749        H755   1.106       .  S
C752        H756   1.110       .  S
C752        H757   1.108       .  S
C752        H758   1.110       .  S
C759        C760   1.407       .  A
C759        C764   1.406       .  A
C759        H766   1.085       .  S
C760        C761   1.412       .  A
C761        C762   1.403       .  A
C761        C768   1.508       .  S
C762        C763   1.408       .  A
C762        H767   1.085       .  S
C763        C764   1.414       .  A
C764        C765   1.507   1_556  S
C765        H769   1.111       .  S
C765        H770   1.110       .  S
C765        H771   1.104       .  S
C768        H772   1.109       .  S
C768        H773   1.110       .  S
C768        H774   1.111       .  S
C775        C776   1.410       .  A
C775        C780   1.415       .  A
C775        H782   1.084       .  S
C776        C777   1.413       .  A
C777        C778   1.405       .  A
C777        C784   1.509       .  S
C778        C779   1.409       .  A
C778        H783   1.085       .  S
C779        C780   1.415       .  A
C780        C781   1.505   1_556  S
C781        H785   1.111       .  S
C781        H786   1.110       .  S
C781        H787   1.109       .  S
C784        H788   1.108       .  S
C784        H789   1.111       .  S
C784        H790   1.111       .  S
C791        C792   1.404       .  A
C791        C796   1.415       .  A
C791        H798   1.084       .  S
C792        C793   1.416       .  A
C793        C794   1.407       .  A
C793        C800   1.508       .  S
C794        C795   1.408       .  A
C794        H799   1.085       .  S
C795        C796   1.422       .  A
C796        C797   1.506       .  S
C797        H801   1.111       .  S
C797        H802   1.111       .  S
C797        H803   1.110       .  S
C800        H804   1.110       .  S
C800        H805   1.108       .  S
C800        H806   1.110       .  S
C807        C808   1.405       .  A
C807        C812   1.405       .  A
C807        H814   1.084       .  S
C808        C809   1.411       .  A
C809        C810   1.401       .  A
C809        C816   1.508       .  S
C810        C811   1.404       .  A
C810        H815   1.085       .  S
C811        C812   1.409       .  A
C812        C813   1.506       .  S
C813        H817   1.111   1_565  S
C813        H818   1.110   1_565  S
C813        H819   1.110   1_565  S
C816        H820   1.109       .  S
C816        H821   1.111       .  S
C816        H822   1.111       .  S
C823        C824   1.405       .  A
C823        C828   1.415       .  A
C823        H830   1.084       .  S
C824        C825   1.411       .  A
C825        C826   1.400       .  A
C825        C832   1.508       .  S
C826        C827   1.409       .  A
C826        H831   1.084       .  S
C827        C828   1.420       .  A
C828        C829   1.504       .  S
C829        H833   1.111       .  S
C829        H834   1.106   1_554  S
C829        H835   1.110       .  S
C832        H836   1.108       .  S
C832        H837   1.110       .  S
C832        H838   1.111       .  S
C839        C840   1.408       .  A
C839        C844   1.399       .  A
C839        H846   1.084       .  S
C840        C841   1.416       .  A
C841        C842   1.416       .  A
C841        C848   1.505       .  S
C842        C843   1.408       .  A
C842        H847   1.084       .  S
C843        C844   1.408       .  A
C844        C845   1.508       .  S
C845        H849   1.111       .  S
C845        H850   1.108       .  S
C845        H851   1.110       .  S
C848        H852   1.107   1_556  S
C848        H853   1.110       .  S
C848        H854   1.111       .  S
C855        C856   1.407       .  A
C855        C860   1.404       .  A
C855        H862   1.084       .  S
C856        C857   1.420       .  A
C857        C858   1.407       .  A
C857        C864   1.507       .  S
C858        C859   1.401       .  A
C858        H863   1.084       .  S
C859        C860   1.413       .  A
C860        C861   1.508       .  S
C861        H865   1.110       .  S
C861        H866   1.109       .  S
C861        H867   1.109       .  S
C864        H868   1.110       .  S
C864        H869   1.110       .  S
C864        H870   1.111       .  S
C871        C872   1.401       .  A
C871        C876   1.411       .  A
C871        H878   1.084       .  S
C872        C873   1.411       .  A
C873        C874   1.408       .  A
C873        C880   1.507       .  S
C874        C875   1.409       .  A
C874        H879   1.084       .  S
C875        C876   1.424       .  A
C876        C877   1.508       .  S
C877        H881   1.111       .  S
C877        H882   1.106       .  S
C877        H883   1.110       .  S
C880        H884   1.110       .  S
C880        H885   1.110       .  S
C880        H886   1.111       .  S
C887        C888   1.410       .  A
C887        C892   1.401       .  A
C887        H894   1.084       .  S
C888        C889   1.423       .  A
C889        C890   1.408       .  A
C889        C896   1.508       .  S
C890        C891   1.402       .  A
C890        H895   1.084       .  S
C891        C892   1.412       .  A
C892        C893   1.509       .  S
C893        H897   1.110       .  S
C893        H898   1.111       .  S
C893        H899   1.108       .  S
C896        H900   1.110       .  S
C896        H901   1.110       .  S
C896        H902   1.111       .  S
C903        C904   1.398       .  A
C903        C908   1.402       .  A
C903        H910   1.084       .  S
C904        C905   1.415       .  A
C905        C906   1.410       .  A
C905        C912   1.505       .  S
C906        C907   1.402       .  A
C906        H911   1.084       .  S
C907        C908   1.419       .  A
C908        C909   1.509       .  S
C909        H913   1.111       .  S
C909        H914   1.109       .  S
C909        H915   1.109       .  S
C912        H916   1.110       .  S
C912        H917   1.110       .  S
C912        H918   1.111       .  S
C919        C920   1.406       .  A
C919        C924   1.410       .  A
C919        H926   1.084       .  S
C920        C921   1.414       .  A
C921        C922   1.405       .  A
C921        C928   1.508       .  S
C922        C923   1.409       .  A
C922        H927   1.085       .  S
C923        C924   1.417       .  A
C924        C925   1.507       .  S
C925        H929   1.111       .  S
C925        H930   1.110       .  S
C925        H931   1.109       .  S
C928        H932   1.107       .  S
C928        H933   1.111       .  S
C928        H934   1.110       .  S
C935        C936   1.405       .  A
C935        C940   1.402       .  A
C935        H942   1.083       .  S
C936        C937   1.419       .  A
C937        C938   1.406       .  A
C937        C944   1.508       .  S
C938        C939   1.401       .  A
C938        H943   1.084       .  S
C939        C940   1.413       .  A
C940        C941   1.509       .  S
C941        H945   1.111       .  S
C941        H946   1.108       .  S
C941        H947   1.110       .  S
C944        H948   1.110       .  S
C944        H949   1.110       .  S
C944        H950   1.111       .  S
C951        C952   1.411       .  A
C951        C956   1.410       .  A
C951        H958   1.083       .  S
C952        C953   1.425       .  A
C953        C954   1.405       .  A
C953        C960   1.502       .  S
C954        C955   1.397       .  A
C954        H959   1.085       .  S
C955        C956   1.411       .  A
C956        C957   1.505       .  S
C957        H961   1.111       .  S
C957        H962   1.110       .  S
C957        H963   1.110       .  S
C960        H964   1.110       .  S
C960        H965   1.108       .  S
C960        H966   1.111       .  S
C967        C968   1.406       .  A
C967        C972   1.402       .  A
C967        H974   1.084       .  S
C968        C969   1.419       .  A
C969        C970   1.402       .  A
C969        C976   1.509       .  S
C970        C971   1.401       .  A
C970        H975   1.085       .  S
C971        C972   1.413       .  A
C972        C973   1.508       .  S
C973        H977   1.111       .  S
C973        H978   1.106       .  S
C973        H979   1.110       .  S
C976        H980   1.110       .  S
C976        H981   1.109       .  S
C976        H982   1.111       .  S
C983        C984   1.410       .  A
C983        C988   1.409       .  A
C983        H990   1.084       .  S
C984        C985   1.415       .  A
C985        C986   1.400       .  A
C985        C992   1.509       .  S
C986        C987   1.404       .  A
C986        H991   1.075       .  S
C987        C988   1.412       .  A
C988        C989   1.503       .  S
C989        H993   1.111       .  S
C989        H994   1.110       .  S
C989        H995   1.109       .  S
C992        H996   1.107       .  S
C992        H997   1.110       .  S
C992        H998   1.109       .  S
C999       C1000   1.405       .  A
C999       C1004   1.405       .  A
C999       H1006   1.084       .  S
C1000      C1001   1.407       .  A
C1001      C1002   1.401       .  A
C1001      C1008   1.507       .  S
C1002      C1003   1.408       .  A
C1002      H1007   1.083       .  S
C1003      C1004   1.412       .  A
C1004      C1005   1.508       .  S
C1005      H1009   1.111       .  S
C1005      H1010   1.108       .  S
C1005      H1011   1.110       .  S
C1008      H1012   1.108       .  S
C1008      H1013   1.110       .  S
C1008      H1014   1.111       .  S
C1015      C1016   1.399       .  A
C1015      C1020   1.403       .  A
C1015      H1022   1.085       .  S
C1016      C1017   1.411       .  A
C1017      C1018   1.398       .  A
C1017      C1024   1.506       .  S
C1018      C1019   1.399       .  A
C1018      H1023   1.084       .  S
C1019      C1020   1.414       .  A
C1020      C1021   1.507       .  S
C1021      H1025   1.111       .  S
C1021      H1026   1.109       .  S
C1021      H1027   1.110       .  S
C1024      H1028   1.108       .  S
C1024      H1029   1.110       .  S
C1024      H1030   1.111       .  S
C1031      C1032   1.411       .  A
C1031      C1036   1.424       .  A
C1031      H1038   1.084       .  S
C1032      C1033   1.411       .  A
C1033      C1034   1.409       .  A
C1033      C1040   1.508       .  S
C1034      C1035   1.416       .  A
C1034      H1039   1.083       .  S
C1035      C1036   1.422       .  A
C1036      C1037   1.505       .  S
C1037      H1041   1.111       .  S
C1037      H1042   1.109   1_655  S
C1037      H1043   1.110       .  S
C1040      H1044   1.109       .  S
C1040      H1045   1.110       .  S
C1040      H1046   1.111       .  S
C1047      C1048   1.414       .  A
C1047      C1052   1.417       .  A
C1047      H1054   1.084       .  S
C1048      C1049   1.415       .  A
C1049      C1050   1.397       .  A
C1049      C1056   1.513       .  S
C1050      C1051   1.402       .  A
C1050      H1055   1.075       .  S
C1051      C1052   1.414       .  A
C1052      C1053   1.504       .  S
C1053      H1057   1.110       .  S
C1053      H1058   1.110       .  S
C1053      H1059   1.109       .  S
C1056      H1060   1.110       .  S
C1056      H1061   1.105       .  S
C1056      H1062   1.111       .  S
C1063      C1064   1.406       .  A
C1063      C1068   1.410       .  A
C1063      H1070   1.084       .  S
C1064      C1065   1.419       .  A
C1065      C1066   1.407       .  A
C1065      C1072   1.505       .  S
C1066      C1067   1.401       .  A
C1066      H1071   1.084       .  S
C1067      C1068   1.413       .  A
C1068      C1069   1.505       .  S
C1069      H1073   1.111       .  S
C1069      H1074   1.110       .  S
C1069      H1075   1.110       .  S
C1072      H1076   1.103       .  S
C1072      H1077   1.105       .  S
C1072      H1078   1.111       .  S
C1079      C1080   1.407       .  A
C1079      C1084   1.398       .  A
C1079      H1086   1.085       .  S
C1080      C1081   1.411       .  A
C1081      C1082   1.412       .  A
C1081      C1088   1.501       .  S
C1082      C1083   1.408       .  A
C1082      H1087   1.084       .  S
C1083      C1084   1.408       .  A
C1084      C1085   1.509       .  S
C1085      H1089   1.111       .  S
C1085      H1090   1.110       .  S
C1085      H1091   1.111       .  S
C1088      H1092   1.110       .  S
C1088      H1093   1.108       .  S
C1088      H1094   1.111       .  S
C1095      C1096   1.399       .  A
C1095      C1100   1.408       .  A
C1095      H1102   1.075       .  S
C1096      C1097   1.415       .  A
C1097      C1098   1.402       .  A
C1097      C1104   1.509       .  S
C1098      C1099   1.403       .  A
C1098      H1103   1.084       .  S
C1099      C1100   1.419       .  A
C1100      C1101   1.508       .  S
C1101      H1105   1.111       .  S
C1101      H1106   1.111       .  S
C1101      H1107   1.108       .  S
C1104      H1108   1.109       .  S
C1104      H1109   1.111       .  S
C1104      H1110   1.111       .  S
C1111      C1112   1.402       .  A
C1111      C1116   1.405       .  A
C1111      H1118   1.085       .  S
C1112      C1113   1.413       .  A
C1113      C1114   1.404       .  A
C1113      C1120   1.499       .  S
C1114      C1115   1.402       .  A
C1114      H1119   1.084       .  S
C1115      C1116   1.421       .  A
C1116      C1117   1.508       .  S
C1117      H1121   1.111       .  S
C1117      H1122   1.111       .  S
C1117      H1123   1.109       .  S
C1120      H1124   1.105       .  S
C1120      H1125   1.110       .  S
C1120      H1126   1.111       .  S
C1127      C1128   1.397       .  A
C1127      C1132   1.397       .  A
C1127      H1134   1.085       .  S
C1128      C1129   1.419       .  A
C1129      C1130   1.411       .  A
C1129      C1136   1.507       .  S
C1130      C1131   1.405       .  A
C1130      H1135   1.084       .  S
C1131      C1132   1.425       .  A
C1132      C1133   1.510       .  S
C1133      H1137   1.111       .  S
C1133      H1138   1.111       .  S
C1133      H1139   1.104       .  S
C1136      H1140   1.111       .  S
C1136      H1141   1.108       .  S
C1136      H1142   1.110       .  S
C1143      C1144   1.411       .  A
C1143      C1148   1.410       .  A
C1143      H1150   1.083       .  S
C1144      C1145   1.414       .  A
C1145      C1146   1.409       .  A
C1145      C1152   1.504       .  S
C1146      C1147   1.411       .  A
C1146      H1151   1.083       .  S
C1147      C1148   1.418       .  A
C1148      C1149   1.510       .  S
C1149      H1153   1.111       .  S
C1149      H1154   1.106       .  S
C1149      H1155   1.110       .  S
C1152      H1156   1.098       .  S
C1152      H1157   1.111   1_545  S
C1152      H1158   1.111       .  S
C1159      C1160   1.409       .  A
C1159      C1164   1.409       .  A
C1159      H1166   1.084       .  S
C1160      C1161   1.422       .  A
C1161      C1162   1.411       .  A
C1161      C1168   1.509       .  S
C1162      C1163   1.403       .  A
C1162      H1167   1.084       .  S
C1163      C1164   1.411       .  A
C1164      C1165   1.506       .  S
C1165      H1169   1.111       .  S
C1165      H1170   1.110       .  S
C1165      H1171   1.110       .  S
C1168      H1172   1.111   1_565  S
C1168      H1173   1.109       .  S
C1168      H1174   1.111       .  S
C1175      C1176   1.411       .  A
C1175      C1180   1.402       .  A
C1175      H1182   1.083       .  S
C1176      C1177   1.416       .  A
C1177      C1178   1.414       .  A
C1177      C1184   1.505       .  S
C1178      C1179   1.409       .  A
C1178      H1183   1.084       .  S
C1179      C1180   1.410       .  A
C1180      C1181   1.509       .  S
C1181      H1185   1.111       .  S
C1181      H1186   1.109       .  S
C1181      H1187   1.110       .  S
C1184      H1188   1.110       .  S
C1184      H1189   1.109       .  S
C1184      H1190   1.111       .  S
C1191      C1192   1.404       .  A
C1191      C1196   1.400       .  A
C1191      H1198   1.084       .  S
C1192      C1193   1.412       .  A
C1193      C1194   1.410       .  A
C1193      C1200   1.505       .  S
C1194      C1195   1.407       .  A
C1194      H1199   1.084       .  S
C1195      C1196   1.413       .  A
C1196      C1197   1.508       .  S
C1197      H1201   1.111       .  S
C1197      H1202   1.110       .  S
C1197      H1203   1.107       .  S
C1200      H1204   1.110       .  S
C1200      H1205   1.111       .  S
C1200      H1206   1.111       .  S
