geometry optimzed in LAMMPS
_audit_creation_date              2020-11-30 
_audit_creation_method            'lammps2cif' 
_symmetry_space_group_name_H-M    'P1' 
_symmetry_Int_Tables_number       1 
_symmetry_cell_setting            triclinic 
loop_ 
_symmetry_equiv_pos_as_xyz 
  x,y,z 
_cell_length_a                    30.02370809 
_cell_length_b                    30.118213965417194 
_cell_length_c                    30.174036908488308 
_cell_angle_alpha                 89.80188876055232 
_cell_angle_beta                  90.39881614492674 
_cell_angle_gamma                 90.18254831549064 
loop_ 
_atom_site_label 
_atom_site_type_symbol 
_atom_site_fract_x 
_atom_site_fract_y 
_atom_site_fract_z 
_atom_site_charge 
O1          O  0.32085345  0.68218447  0.74606686    -0.78100
O2          O  0.32350698  0.81620075  0.75651080    -0.78100
O3          O  0.27310609  0.71760153  0.64928193    -0.78100
O4          O  0.25865445  0.78132565  0.84238776    -0.78100
O5          O  0.32830810  0.75014397  0.68556747    -0.78200
O6          O  0.31742864  0.74702265  0.81616975    -0.78100
O7          O  0.26365008  0.84468573  0.78697049    -0.78100
O8          O  0.26610847  0.65433234  0.70580782    -0.78100
C9          C  0.30646331  0.65329935  0.71882047     1.11600
C10         C  0.30541793  0.84603418  0.78023115     1.11500
C11         C  0.31428242  0.72723972  0.65284284     1.11600
C12         C  0.29961171  0.77127118  0.84546849     1.11500
O13         O  0.23067839  0.70923839  0.83837487    -0.78100
O14         O  0.24861912  0.79105146  0.65011519    -0.78200
O15         O  0.18063848  0.68397243  0.73706561    -0.78100
O16         O  0.18366010  0.81631603  0.74006471    -0.78100
O17         O  0.24367509  0.84768813  0.71212220    -0.78100
O18         O  0.23403961  0.65211381  0.77644622    -0.78100
O19         O  0.17739712  0.74595637  0.80381750    -0.78100
O20         O  0.18807202  0.75627614  0.67237250    -0.78100
Co21       Co  0.27619126  0.70214403  0.79011386     1.51500
Co22       Co  0.28556256  0.79646215  0.70534473     1.51700
Co23       Co  0.22678921  0.70733503  0.69572616     1.51600
Co24       Co  0.22119855  0.79285272  0.78877324     1.51500
O25         O  0.25246963  0.74962265  0.74493405    -1.40000
C26         C  0.19011880  0.72127532  0.83559976     1.11500
C27         C  0.20727908  0.78286154  0.64556582     1.11600
C28         C  0.19368516  0.65337529  0.76342206     1.11500
C29         C  0.20193043  0.84793888  0.71901956     1.11500
O30         O  0.74406236  0.17461498  0.68505534    -0.78100
O31         O  0.74784582  0.17216113  0.81479060    -0.78100
O32         O  0.84174807  0.23530819  0.71301494    -0.78100
O33         O  0.64925326  0.23105534  0.79105387    -0.78100
O34         O  0.81384518  0.17661849  0.74618451    -0.78200
O35         O  0.67692155  0.17470684  0.75434462    -0.78100
O36         O  0.71285445  0.22648521  0.84877910    -0.78100
O37         O  0.77967036  0.23134553  0.65499174    -0.78100
C38         C  0.76986316  0.19010031  0.65528490     1.11600
C39         C  0.72378828  0.18571299  0.84645845     1.11500
C40         C  0.84365240  0.19424183  0.72214903     1.11600
C41         C  0.64777619  0.19029901  0.78045325     1.11500
O42         O  0.64807543  0.25955829  0.71779881    -0.78100
O43         O  0.84283427  0.26016636  0.78622579    -0.78200
O44         O  0.74006420  0.31443847  0.68582247    -0.78100
O45         O  0.74996051  0.31196009  0.82180011    -0.78100
O46         O  0.78588220  0.25430907  0.84854168    -0.78100
O47         O  0.70603717  0.25746605  0.65543790    -0.78100
O48         O  0.67912771  0.31460543  0.75540878    -0.78100
O49         O  0.80940444  0.31605069  0.75224665    -0.78100
Co50       Co  0.69836705  0.21673069  0.70769427     1.51500
Co51       Co  0.79297645  0.21592197  0.79460518     1.51700
Co52       Co  0.78826880  0.27405213  0.70598916     1.51600
Co53       Co  0.70217691  0.27096881  0.79969728     1.51500
O54         O  0.74532514  0.24437841  0.75199517    -1.40000
C55         C  0.64909793  0.30033657  0.72888409     1.11500
C56         C  0.84116684  0.30126135  0.77617581     1.11600
C57         C  0.71641951  0.29835795  0.65475064     1.11500
C58         C  0.77656646  0.29538111  0.85041076     1.11500
O59         O  0.69372790  0.74349752  0.17509406    -0.78100
O60         O  0.82335133  0.74339116  0.18863096    -0.78100
O61         O  0.71402240  0.83827730  0.23744056    -0.78100
O62         O  0.79066398  0.64530218  0.24109427    -0.78100
O63         O  0.75557230  0.81139683  0.18399243    -0.78200
O64         O  0.76147858  0.67627307  0.18154189    -0.78100
O65         O  0.84863214  0.70712840  0.24708890    -0.78100
O66         O  0.65647302  0.77629530  0.22844530    -0.78100
C67         C  0.66085541  0.76647365  0.18769933     1.11600
C68         C  0.85139754  0.71691292  0.20615357     1.11500
C69         C  0.72785905  0.84000789  0.19777227     1.11600
C70         C  0.78420867  0.64534396  0.19935115     1.11500
O71         O  0.71524299  0.64485753  0.25969541    -0.78100
O72         O  0.78524459  0.83847629  0.27136420    -0.78200
O73         O  0.67773777  0.73674711  0.31407944    -0.78100
O74         O  0.81063845  0.74291991  0.32789121    -0.78100
O75         O  0.84595973  0.77913497  0.27519846    -0.78100
O76         O  0.65431451  0.70297616  0.25364286    -0.78100
O77         O  0.74409800  0.67388475  0.32036804    -0.78100
O78         O  0.74398685  0.80709001  0.32311404    -0.78100
Co79       Co  0.71049509  0.69653301  0.21814016     1.51500
Co80       Co  0.79818854  0.78857681  0.22940133     1.51700
Co81       Co  0.70257980  0.78517592  0.27606831     1.51600
Co82       Co  0.79406589  0.69674757  0.28371322     1.51500
O83         O  0.75134765  0.74187513  0.25191529    -1.40000
C84         C  0.72154617  0.64355002  0.30138417     1.11500
C85         C  0.77104776  0.83742685  0.31099420     1.11600
C86         C  0.64964148  0.71160717  0.29460257     1.11500
C87         C  0.84272466  0.76755909  0.31562285     1.11500
C88         C  0.52272207  0.98646768  0.03401076     0.04300
C89         C  0.52637980  0.02037223  0.00210063     0.04300
C90         C  0.49516897  0.02300034  0.96691575     0.04300
C91         C  0.45769685  0.99426398  0.96666844     0.04300
C92         C  0.45120194  0.96409244  0.00208896     0.04300
C93         C  0.48504368  0.95848423  0.03437259     0.04300
C94         C  0.66294596  0.02101342  0.17932678     0.05200
C95         C  0.62425154  0.02727082  0.15375179    -0.11000
C96         C  0.60379800  0.99126470  0.13250679     0.02700
C97         C  0.62079383  0.94817225  0.13887208    -0.09500
C98         C  0.65960882  0.94135778  0.16396253     0.05200
C99         C  0.68103549  0.97805946  0.18341014    -0.08900
H100        H  0.61108808  0.06034920  0.14858055     0.10800
H101        H  0.60353159  0.91986497  0.12478579     0.08300
H102        H  0.71058131  0.97287390  0.20361184     0.08100
C103        C  0.67348549  0.14239056  0.04150396     0.05200
C104        C  0.64178368  0.10867853  0.03521219    -0.11000
C105        C  0.63058709  0.09440245  0.99196786     0.02700
C106        C  0.65214677  0.11345294  0.95536793    -0.09500
C107        C  0.68345743  0.14762496  0.96133543     0.05200
C108        C  0.69392409  0.16174080  0.00449296    -0.08900
H109        H  0.62724927  0.09263466  0.06388806     0.10800
H110        H  0.64286691  0.10305592  0.92221493     0.08300
H111        H  0.71863067  0.18764923  0.00939372     0.08100
C112        C  0.31423896  0.04591464  0.82940058     0.05200
C113        C  0.34094581  0.04689432  0.86765293    -0.11000
C114        C  0.36109331  0.00783776  0.88357610     0.02700
C115        C  0.35323443  0.96698645  0.86175263    -0.09500
C116        C  0.32501637  0.96539766  0.82437004     0.05200
C117        C  0.30645800  0.00512222  0.80829880    -0.08900
H118        H  0.34772534  0.07819644  0.88400254     0.10800
H119        H  0.36690689  0.93651727  0.87525511     0.08300
H120        H  0.28496816  0.00415169  0.77926228     0.08100
C121        C  0.45708619  0.17974191  0.83544059     0.05200
C122        C  0.50065713  0.18752646  0.82049223    -0.11000
C123        C  0.53691177  0.16370725  0.83782254     0.02700
C124        C  0.52934871  0.13113567  0.87028048    -0.09500
C125        C  0.48559389  0.12194016  0.88504586     0.05200
C126        C  0.44984799  0.14697718  0.86785523    -0.08900
H127        H  0.50660270  0.21323489  0.79595488     0.10800
H128        H  0.55781140  0.11481425  0.88519235     0.08300
H129        H  0.41624609  0.13994378  0.87878334     0.08100
C130        C  0.46259372  0.80724396  0.15489437     0.05200
C131        C  0.46464547  0.84164318  0.12373953    -0.11000
C132        C  0.50598017  0.85459377  0.10596251     0.02700
C133        C  0.54507145  0.83272692  0.11978284    -0.09500
C134        C  0.54305028  0.79888678  0.15178579     0.05200
C135        C  0.50161421  0.78594470  0.16841895    -0.08900
H136        H  0.43395955  0.85667782  0.11222688     0.10800
H137        H  0.57698937  0.84346466  0.10706226     0.08300
H138        H  0.49974256  0.75965225  0.19303317     0.08100
C139        C  0.30012371  0.84041778  0.03821673     0.05200
C140        C  0.28857744  0.81958585  0.99828235    -0.11000
C141        C  0.31637593  0.82123442  0.96127294     0.02700
C142        C  0.35630987  0.84508443  0.96372234    -0.09500
C143        C  0.36767520  0.86783954  0.00267272     0.05200
C144        C  0.33979328  0.86546390  0.04014857    -0.08900
H145        H  0.25786458  0.80056739  0.99627866     0.10800
H146        H  0.37770980  0.84756259  0.93505074     0.08300
H147        H  0.34996562  0.88152521  0.07063523     0.08100
C148        C  0.02964369  0.50895755  0.97043110     0.04300
C149        C  0.99913868  0.47344943  0.96543524     0.04300
C150        C  0.96207215  0.46971720  0.99415056     0.04300
C151        C  0.95734684  0.50029272  0.02944152     0.04300
C152        C  0.98988680  0.53380245  0.03639576     0.04300
C153        C  0.02556792  0.53857571  0.00637827     0.04300
C154        C  0.15236668  0.69052951  0.95311286     0.05200
C155        C  0.11680338  0.66031354  0.95106782    -0.11000
C156        C  0.09870334  0.64251260  0.99013894     0.02700
C157        C  0.11549943  0.65638895  0.03170735    -0.09500
C158        C  0.14988304  0.68803833  0.03387022     0.05200
C159        C  0.16816052  0.70459358  0.99456700    -0.08900
H160        H  0.10468529  0.64882684  0.91920026     0.10800
H161        H  0.10078774  0.64412570  0.06208385     0.08300
H162        H  0.19523574  0.72848922  0.99630709     0.08100
C163        C  0.15740552  0.55206461  0.83060637     0.05200
C164        C  0.13294616  0.54553168  0.86953028    -0.11000
C165        C  0.12621984  0.50246132  0.88681441     0.02700
C166        C  0.14704314  0.46624796  0.86649515    -0.09500
C167        C  0.17223197  0.47227928  0.82787828     0.05200
C168        C  0.17617197  0.51515577  0.80947403    -0.08900
H169        H  0.12004448  0.57417172  0.88673031     0.10800
H170        H  0.14215951  0.43317709  0.87987740     0.08300
H171        H  0.19616889  0.52017826  0.78008251     0.08100
C172        C  0.96154749  0.65749185  0.18418770     0.05200
C173        C  0.99972399  0.67219494  0.20636230    -0.11000
C174        C  0.04189746  0.65583540  0.19577932     0.02700
C175        C  0.04564596  0.62354242  0.16251822    -0.09500
C176        C  0.00738933  0.60845064  0.13949776     0.05200
C177        C  0.96521893  0.62564651  0.15080089    -0.08900
H178        H  0.99646334  0.69679051  0.23234166     0.10800
H179        H  0.07824912  0.61146603  0.15332769     0.08300
H180        H  0.93505701  0.61316873  0.13550751     0.08100
C181        C  0.82714287  0.52722858  0.17421882     0.05200
C182        C  0.86176121  0.52736998  0.14312919    -0.11000
C183        C  0.88250372  0.48722007  0.13125869     0.02700
C184        C  0.86794734  0.44682176  0.14982748    -0.09500
C185        C  0.83190723  0.44623209  0.17920917     0.05200
C186        C  0.81222151  0.48652003  0.19140010    -0.08900
H187        H  0.87417137  0.55854574  0.13009500     0.10800
H188        H  0.88353079  0.41599214  0.14008321     0.08300
H189        H  0.78503509  0.48620927  0.21490448     0.08100
C190        C  0.03816404  0.34230432  0.82584603     0.05200
C191        C  0.03325198  0.37806301  0.85521135    -0.11000
C192        C  0.99026800  0.39340096  0.86627232     0.02700
C193        C  0.95258635  0.37298990  0.84739631    -0.09500
C194        C  0.95715914  0.33679357  0.81876831     0.05200
C195        C  0.99998558  0.32166556  0.80833273    -0.08900
H196        H  0.06261554  0.39515677  0.86747635     0.10800
H197        H  0.91965134  0.38435824  0.85635859     0.08300
H198        H  0.00370478  0.29439140  0.78527611     0.08100
C199        C  0.83765575  0.30881137  0.04158244     0.05200
C200        C  0.86921399  0.34303484  0.04613770    -0.11000
C201        C  0.88408684  0.36705987  0.00870710     0.02700
C202        C  0.86742600  0.35542853  0.96612204    -0.09500
C203        C  0.83612893  0.32090843  0.96139997     0.05200
C204        C  0.82154380  0.29817417  0.99919421    -0.08900
H205        H  0.88100012  0.35202837  0.07893906     0.10800
H206        H  0.87992305  0.37133069  0.93651656     0.08300
H207        H  0.79748609  0.27145817  0.99547812     0.08100
C208        C  0.54177229  0.46864313  0.48606459     0.04300
C209        C  0.50922842  0.46613464  0.51922431     0.04300
C210        C  0.47395256  0.49716278  0.51957209     0.04300
C211        C  0.47405204  0.53316696  0.48916221     0.04300
C212        C  0.50970537  0.53815362  0.45914569     0.04300
C213        C  0.54300675  0.50537851  0.45711991     0.04300
C214        C  0.54722802  0.33650781  0.66058754     0.05200
C215        C  0.50930362  0.31959345  0.68196782    -0.11000
C216        C  0.46640761  0.32664610  0.66417862     0.02700
C217        C  0.46152850  0.35270477  0.62587159    -0.09500
C218        C  0.49872954  0.37141783  0.60513295     0.05200
C219        C  0.54174903  0.36209388  0.62190257    -0.08900
H220        H  0.51334668  0.29895455  0.71122552     0.10800
H221        H  0.42857261  0.35989401  0.61294009     0.08300
H222        H  0.57095427  0.37381904  0.60450789     0.08100
C223        C  0.34725916  0.68582915  0.53688289     0.05200
C224        C  0.38434040  0.65763919  0.54024113    -0.11000
C225        C  0.40060375  0.63619510  0.50240234     0.02700
C226        C  0.38119094  0.64499413  0.46067759    -0.09500
C227        C  0.34423423  0.67310374  0.45684975     0.05200
C228        C  0.32719908  0.69290927  0.49515420    -0.08900
H229        H  0.39904960  0.65041924  0.57233535     0.10800
H230        H  0.39469503  0.62973972  0.43120348     0.08300
H231        H  0.29865610  0.71473401  0.49236956     0.08100
C232        C  0.67735824  0.52501427  0.31808917     0.05200
C233        C  0.68969701  0.48569625  0.29702432    -0.11000
C234        C  0.66863558  0.44535774  0.30664372     0.02700
C235        C  0.63423776  0.44445176  0.33775446    -0.09500
C236        C  0.62158573  0.48356221  0.35959252     0.05200
C237        C  0.64324073  0.52399812  0.34947400    -0.08900
H238        H  0.71618997  0.48652723  0.27274715     0.10800
H239        H  0.61835213  0.41324982  0.34624402     0.08300
H240        H  0.63232934  0.55485892  0.36396530     0.08100
C241        C  0.53190818  0.66085386  0.30932479     0.05200
C242        C  0.52876403  0.63209401  0.34587605    -0.11000
C243        C  0.48732296  0.61253425  0.35705531     0.02700
C244        C  0.44919424  0.62244660  0.33135461    -0.09500
C245        C  0.45200053  0.65154720  0.29504180     0.05200
C246        C  0.49354757  0.66995038  0.28424066    -0.08900
H247        H  0.55888439  0.62334594  0.36367873     0.10800
H248        H  0.41730963  0.60839093  0.34053348     0.08300
H249        H  0.49602627  0.69236086  0.25612136     0.08100
C250        C  0.33893966  0.54053960  0.66940766     0.05200
C251        C  0.37263342  0.54683738  0.63796739    -0.11000
C252        C  0.39136700  0.51030160  0.61605643     0.02700
C253        C  0.37710321  0.46695148  0.62723469    -0.09500
C254        C  0.34335747  0.46051174  0.65842349     0.05200
C255        C  0.32419284  0.49735010  0.67897914    -0.08900
H256        H  0.38331140  0.58019640  0.62949626     0.10800
H257        H  0.39310645  0.43813651  0.61323341     0.08300
H258        H  0.29849276  0.49225494  0.70358960     0.08100
C259        C  0.67834806  0.32715891  0.53572612     0.05200
C260        C  0.65435070  0.36693203  0.53681291    -0.11000
C261        C  0.63721011  0.38549795  0.49767931     0.02700
C262        C  0.64546667  0.36490484  0.45659339    -0.09500
C263        C  0.67029955  0.32551785  0.45487598     0.05200
C264        C  0.68613661  0.30671399  0.49463264    -0.08900
H265        H  0.64725286  0.38263211  0.56821194     0.10800
H266        H  0.63441168  0.38053786  0.42606534     0.08300
H267        H  0.70608423  0.27679238  0.49340341     0.08100
C268        C  0.04924424  0.01004642  0.52913487     0.04300
C269        C  0.04831177  0.97029589  0.50474961     0.04300
C270        C  0.01139994  0.96009264  0.47767185     0.04300
C271        C  0.97278215  0.98695320  0.47950572     0.04300
C272        C  0.97259281  0.02560033  0.50638738     0.04300
C273        C  0.01198225  0.03821993  0.52937100     0.04300
C274        C  0.04021852  0.17798004  0.66249457     0.05200
C275        C  0.03713445  0.14291869  0.63195955    -0.11000
C276        C  0.99541301  0.12265396  0.62308779     0.02700
C277        C  0.95743385  0.13724797  0.64544035    -0.09500
C278        C  0.96002497  0.17292974  0.67485066     0.05200
C279        C  0.00137696  0.19321643  0.68292647    -0.08900
H280        H  0.06725908  0.12970430  0.61761474     0.10800
H281        H  0.92563542  0.12145452  0.63900943     0.08300
H282        H  0.00370104  0.21993791  0.70686237     0.08100
C283        C  0.18375008  0.04640254  0.66838755     0.05200
C284        C  0.14840840  0.04458106  0.63763149    -0.11000
C285        C  0.12784162  0.00345974  0.62827523     0.02700
C286        C  0.14286520  0.96468899  0.64907822    -0.09500
C287        C  0.17885759  0.96615576  0.67854717     0.05200
C288        C  0.19904089  0.00698079  0.68799060    -0.08900
H289        H  0.13537546  0.07488686  0.62319243     0.10800
H290        H  0.12742706  0.93318641  0.64082659     0.08300
H291        H  0.22644820  0.00821069  0.71158957     0.08100
C292        C  0.19271320  0.84172007  0.53253958     0.05200
C293        C  0.16143670  0.87618690  0.53065641    -0.11000
C294        C  0.15272793  0.89826978  0.48999046     0.02700
C295        C  0.17566463  0.88542600  0.45155606    -0.09500
C296        C  0.20621692  0.85034014  0.45325097     0.05200
C297        C  0.21474689  0.82931311  0.49387061    -0.08900
H298        H  0.14574717  0.88696773  0.56096000     0.10800
H299        H  0.16800131  0.90126774  0.42013850     0.08300
H300        H  0.23882426  0.80252983  0.49544061     0.08100
C301        C  0.83249238  0.16859572  0.46715353     0.05200
C302        C  0.81353218  0.17710247  0.50880672    -0.11000
C303        C  0.83120507  0.15820790  0.54775586     0.02700
C304        C  0.86771776  0.12924042  0.54453997    -0.09500
C305        C  0.88712607  0.12063507  0.50299580     0.05200
C306        C  0.86965989  0.14067477  0.46467534    -0.08900
H307        H  0.78589353  0.20005918  0.51115716     0.10800
H308        H  0.88268669  0.11569242  0.57432151     0.08300
H309        H  0.88460424  0.13361300  0.43290162     0.08100
C310        C  0.83031609  0.02163069  0.33332332     0.05200
C311        C  0.81368662  0.97837347  0.32683949    -0.11000
C312        C  0.83299584  0.94190874  0.34883797     0.02700
C313        C  0.86846794  0.94921851  0.37854075    -0.09500
C314        C  0.88395089  0.99272657  0.38697619     0.05200
C315        C  0.86508749  0.02844133  0.36373531    -0.08900
H316        H  0.78719895  0.97278490  0.30286905     0.10800
H317        H  0.88479441  0.92088307  0.39356149     0.08300
H318        H  0.87700373  0.06182161  0.37017484     0.08100
C319        C  0.04058510  0.81311591  0.35291369     0.05200
C320        C  0.03754648  0.84460792  0.38695747    -0.11000
C321        C  0.99550841  0.85579517  0.40462306     0.02700
C322        C  0.95686689  0.83513701  0.38781346    -0.09500
C323        C  0.95971485  0.80470320  0.35287662     0.05200
C324        C  0.00166028  0.79360082  0.33616497    -0.08900
H325        H  0.06781064  0.85877852  0.40070180     0.10800
H326        H  0.92454829  0.84454592  0.40040350     0.08300
H327        H  0.00407787  0.76962382  0.30953187     0.08100
O328        O  0.24677134  0.19582296  0.67604345    -0.78100
O329        O  0.25328529  0.32619241  0.67434407    -0.78100
O330        O  0.15079138  0.22850092  0.73215683    -0.73300
O331        O  0.34887136  0.29422461  0.73502627    -0.78100
O332        O  0.18198264  0.26107207  0.67496623    -0.78200
O333        O  0.31768730  0.26072854  0.67799752    -0.78100
O334        O  0.29034920  0.35563766  0.73053808    -0.78100
O335        O  0.20933511  0.16717929  0.73197625    -0.78100
C336        C  0.22090619  0.16615350  0.69146165     1.11600
C337        C  0.28055048  0.35497813  0.68938000     1.11500
C338        C  0.15133213  0.23651563  0.69080114     1.11600
C339        C  0.34939379  0.28361953  0.69431774     1.11500
O340        O  0.34452741  0.22153382  0.76215661    -0.78100
O341        O  0.15377645  0.30195693  0.75770341    -0.78200
O342        O  0.24812043  0.19512721  0.81594910    -0.78100
O343        O  0.24900412  0.32896391  0.81373440    -0.78100
O344        O  0.21676834  0.36004256  0.75579225    -0.78100
O345        O  0.28209803  0.16359509  0.75989824    -0.78100
O346        O  0.31460577  0.25847101  0.81739493    -0.78100
O347        O  0.18207578  0.26577119  0.81492213    -0.78100
Co348      Co  0.29346610  0.21505320  0.71897420     1.51500
Co349      Co  0.20572059  0.30768985  0.71601399     1.51700
Co350      Co  0.20230476  0.21844142  0.77369051     1.51600
Co351      Co  0.29602635  0.30521414  0.77411705     1.51500
O352        O  0.24936985  0.26163815  0.74566937    -1.40000
C353        C  0.34424361  0.23214086  0.80294113     1.11500
C354        C  0.15274097  0.29181198  0.79873223     1.11600
C355        C  0.27161028  0.16364840  0.80063253     1.11500
C356        C  0.22536946  0.35987855  0.79707514     1.11500
O357        O  0.76234470  0.13680750  0.29182433    -0.78100
O358        O  0.76372589  0.32626568  0.20888549    -0.78100
O359        O  0.82239233  0.23056064  0.18541094    -0.78100
O360        O  0.82043944  0.23333067  0.31758573    -0.78100
O361        O  0.76570628  0.26326922  0.15222749    -0.78200
O362        O  0.76326702  0.19971439  0.34885205    -0.78100
O363        O  0.82042422  0.29803219  0.24597790    -0.78100
O364        O  0.82015331  0.16535936  0.25708573    -0.78100
C365        C  0.80345605  0.13570131  0.28217203     1.11600
C366        C  0.80459950  0.32777037  0.22036961     1.11500
C367        C  0.80714592  0.25491006  0.15415141     1.11600
C368        C  0.80436106  0.21014591  0.34907884     1.11500
O369        O  0.67996964  0.23695985  0.31727057    -0.78100
O370        O  0.68192960  0.22541833  0.18104708    -0.78200
O371        O  0.73711831  0.13393698  0.21842141    -0.78100
O372        O  0.73588441  0.32815994  0.28089645    -0.78100
O373        O  0.67982239  0.29541089  0.24625835    -0.78100
O374        O  0.68016414  0.16613044  0.25128618    -0.78100
O375        O  0.73749357  0.27296235  0.34497845    -0.78100
O376        O  0.73985234  0.18990842  0.15472757    -0.78100
Co377      Co  0.72158011  0.18911250  0.29754708     1.51500
Co378      Co  0.72283590  0.27343897  0.20184029     1.51700
Co379      Co  0.77980927  0.18453124  0.20814284     1.51600
Co380      Co  0.77854962  0.27848038  0.29305597     1.51500
O381        O  0.75059555  0.23131973  0.25015906    -1.40000
C382        C  0.69624692  0.26356050  0.34599266     1.11500
C383        C  0.69861886  0.19922928  0.15263916     1.11600
C384        C  0.69587458  0.13471855  0.22797997     1.11500
C385        C  0.69492770  0.32705563  0.26972344     1.11500
O386        O  0.30094997  0.67567959  0.23581593    -0.78100
O387        O  0.19277340  0.68051862  0.25827591    -0.78100
O388        O  0.28906359  0.73230262  0.33910286    -0.78100
O389        O  0.19389040  0.74927895  0.15400722    -0.78100
O390        O  0.22448002  0.69456533  0.34860587    -0.78200
O391        O  0.22757712  0.68881840  0.17580491    -0.78100
O392        O  0.15091274  0.73405085  0.22866260    -0.78100
O393        O  0.34176702  0.72561743  0.27092362    -0.78100
C394        C  0.33461183  0.68568833  0.25972335     1.11600
C395        C  0.15737832  0.69302030  0.23784398     1.11500
C396        C  0.26427844  0.70425550  0.36134433     1.11600
C397        C  0.20132518  0.70820533  0.14910070     1.11500
O398        O  0.26963680  0.77268325  0.14969530    -0.78100
O399        O  0.22759938  0.77958502  0.33784338    -0.78200
O400        O  0.32400139  0.81364548  0.23555748    -0.78100
O401        O  0.17706452  0.81739723  0.26543517    -0.78100
O402        O  0.16127338  0.75718236  0.30477042    -0.78100
O403        O  0.33993004  0.75429973  0.19726992    -0.78100
O404        O  0.23567280  0.82749609  0.18649754    -0.78100
O405        O  0.26841891  0.82823235  0.30549787    -0.78100
Co406      Co  0.28118385  0.72350548  0.19369209     1.51500
Co407      Co  0.22057700  0.72793803  0.29518362     1.51700
Co408      Co  0.30088889  0.77537731  0.28412053     1.51600
Co409      Co  0.19365407  0.78251059  0.21160037     1.51500
O410        O  0.24790198  0.75577051  0.24331319    -1.40000
C411        C  0.26010066  0.81389643  0.15455721     1.11500
C412        C  0.24287782  0.81833534  0.33640447     1.11600
C413        C  0.34790602  0.79431784  0.20726539     1.11500
C414        C  0.15270511  0.79745519  0.29407575     1.11500
C415        C  0.08375300  0.79573574  0.33733412    -0.14400
C416        C  0.11426105  0.81991611  0.31508664    -0.29600
H417        H  0.08769436  0.75992997  0.33950465     0.14600
H418        H  0.10912170  0.85520712  0.30967382     0.15200
C419        C  0.80891685  0.05955148  0.31018135    -0.14400
C420        C  0.82984086  0.09795110  0.29932149    -0.29600
H421        H  0.77378615  0.05565448  0.30200625     0.14600
H422        H  0.86559424  0.10167237  0.30349018     0.15200
C423        C  0.81088896  0.18734252  0.42683423    -0.14400
C424        C  0.83143793  0.19620142  0.38793800    -0.29600
H425        H  0.77548611  0.19429495  0.42957944     0.14600
H426        H  0.86728394  0.19319136  0.38476098     0.15200
C427        C  0.22543872  0.82974520  0.41328454    -0.14400
C428        C  0.23136011  0.84855701  0.37307001    -0.29600
H429        H  0.23441715  0.79493657  0.41725407     0.14600
H430        H  0.22648714  0.88380099  0.36732312     0.15200
C431        C  0.20112578  0.08844902  0.68683832    -0.14400
C432        C  0.20647055  0.12727187  0.66510801    -0.29600
H433        H  0.21100110  0.08679992  0.72159195     0.14600
H434        H  0.20087991  0.12996791  0.62962409     0.15200
C435        C  0.08330003  0.19179208  0.68232252    -0.14400
C436        C  0.11428276  0.21815684  0.66306036    -0.29600
H437        H  0.08673654  0.18353787  0.71725327     0.14600
H438        H  0.11086752  0.22797513  0.62855609     0.15200
C439        C  0.99059114  0.88903966  0.44046421    -0.14400
C440        C  0.01681312  0.92506640  0.44340554    -0.29600
H441        H  0.96327506  0.88498354  0.46353203     0.14600
H442        H  0.04424499  0.92925841  0.42049747     0.15200
C443        C  0.92140890  0.00249899  0.41777459    -0.14400
C444        C  0.93367109  0.97581668  0.45130652    -0.29600
H445        H  0.93932995  0.03362620  0.41327747     0.14600
H446        H  0.91605825  0.94502233  0.45759300     0.15200
C447        C  0.93082319  0.05168758  0.51141487    -0.14400
C448        C  0.92847795  0.09446954  0.49922387    -0.29600
H449        H  0.90118283  0.03478696  0.52332830     0.14600
H450        H  0.95695418  0.10997804  0.48332114     0.15200
C451        C  0.01472929  0.07932612  0.55635347    -0.14400
C452        C  0.99036795  0.08424793  0.59297552    -0.29600
H453        H  0.04049379  0.10336601  0.54832380     0.14600
H454        H  0.96486510  0.05969359  0.60051927     0.15200
C455        C  0.08729125  0.01970013  0.55894988    -0.14400
C456        C  0.08941334  0.99928089  0.59823122    -0.29600
H457        H  0.11288394  0.04297834  0.54854685     0.14600
H458        H  0.06388299  0.97498393  0.60658935     0.15200
C459        C  0.08340380  0.93641298  0.51173329    -0.14400
C460        C  0.11972529  0.93467357  0.48627977    -0.29600
H461        H  0.07718421  0.91106695  0.53659386     0.14600
H462        H  0.12341818  0.95884093  0.45969656     0.15200
C463        C  0.68954284  0.31003216  0.41257711    -0.14400
C464        C  0.66954598  0.28242485  0.38303382    -0.29600
H465        H  0.72419987  0.31928786  0.40798582     0.14600
H466        H  0.63520605  0.27209762  0.38761511     0.15200
C467        C  0.33298873  0.41587712  0.67581577    -0.14400
C468        C  0.29866350  0.39090498  0.66096545    -0.29600
H469        H  0.35008113  0.40667248  0.70634170     0.14600
H470        H  0.28135241  0.39975502  0.63047991     0.15200
C471        C  0.41241800  0.66900197  0.27083247    -0.14400
C472        C  0.36998910  0.65370851  0.27216522    -0.29600
H473        H  0.41818622  0.70004956  0.25311263     0.14600
H474        H  0.36148798  0.62177416  0.28657836     0.15200
C475        C  0.66724680  0.36515981  0.28267772    -0.14400
C476        C  0.68770250  0.40480778  0.28714789    -0.29600
H477        H  0.63203185  0.36078158  0.28933214     0.14600
H478        H  0.72214991  0.40778978  0.27646055     0.15200
C479        C  0.32568357  0.68408463  0.41239083    -0.14400
C480        C  0.28158808  0.68661763  0.40393911    -0.29600
H481        H  0.34917623  0.69042887  0.38583422     0.14600
H482        H  0.25786368  0.67687081  0.42921553     0.15200
C483        C  0.42698181  0.30866715  0.68764789    -0.14400
C484        C  0.38815283  0.29735471  0.66753852    -0.29600
H485        H  0.43032929  0.30425930  0.72329728     0.14600
H486        H  0.38495298  0.29796583  0.63169236     0.15200
C487        C  0.43610418  0.56442891  0.48691864    -0.14400
C488        C  0.43762892  0.60418300  0.50685640    -0.29600
H489        H  0.40703738  0.55474991  0.46756908     0.14600
H490        H  0.46567037  0.61245675  0.52827853     0.15200
C491        C  0.42701922  0.51851378  0.58311243    -0.14400
C492        C  0.43629717  0.49003627  0.55035451    -0.29600
H493        H  0.44607626  0.54914574  0.58562459     0.14600
H494        H  0.41727517  0.45962969  0.54660558     0.15200
C495        C  0.51173365  0.57614902  0.42763053    -0.14400
C496        C  0.48288813  0.57955147  0.39355954    -0.29600
H497        H  0.53996077  0.59851079  0.43043602     0.14600
H498        H  0.45503213  0.55643938  0.39197794     0.15200
C499        C  0.57963356  0.51017974  0.42485989    -0.14400
C500        C  0.58498132  0.48086125  0.39199640    -0.29600
H501        H  0.60151314  0.53866012  0.42842193     0.14600
H502        H  0.56230027  0.45273363  0.38974080     0.15200
C503        C  0.57180140  0.43041788  0.47916702    -0.14400
C504        C  0.61043615  0.42636784  0.50099603    -0.29600
H505        H  0.56035611  0.40412710  0.45727654     0.14600
H506        H  0.61992722  0.45134588  0.52524220     0.15200
C507        C  0.51710556  0.43551335  0.55719391    -0.14400
C508        C  0.49116181  0.40033966  0.56588031    -0.29600
H509        H  0.54610040  0.44221349  0.57783105     0.14600
H510        H  0.46195107  0.39432768  0.54528154     0.15200
C511        C  0.81586061  0.28716339  0.08010311    -0.14400
C512        C  0.83560016  0.27381432  0.11839626    -0.29600
H513        H  0.78052143  0.28044708  0.07549589     0.14600
H514        H  0.87135725  0.27682063  0.12311417     0.15200
C515        C  0.11468923  0.30829877  0.82557510    -0.14400
C516        C  0.08165683  0.33163318  0.80565668    -0.29600
H517        H  0.11198758  0.29878156  0.86019462     0.14600
H518        H  0.08387208  0.33906375  0.77048519     0.15200
C519        C  0.83157229  0.36640724  0.20550706    -0.14400
C520        C  0.81051704  0.40455073  0.19464859    -0.29600
H521        H  0.86765729  0.36434297  0.20502150     0.14600
H522        H  0.77465255  0.40633437  0.19917029     0.15200
C523        C  0.08064173  0.67843782  0.21640393    -0.14400
C524        C  0.12174711  0.66167495  0.22379941    -0.29600
H525        H  0.07436233  0.71261008  0.22609997     0.14600
H526        H  0.12914718  0.62696601  0.21784522     0.15200
C527        C  0.19277904  0.43425383  0.80448881    -0.14400
C528        C  0.20780056  0.39671140  0.82430720    -0.29600
H529        H  0.19661339  0.43802913  0.76887252     0.14600
H530        H  0.20740468  0.39320619  0.86011331     0.15200
C531        C  0.16495128  0.70791426  0.07614749    -0.14400
C532        C  0.18132341  0.68455055  0.11073894    -0.29600
H533        H  0.16713989  0.74394930  0.07665181     0.14600
H534        H  0.18280020  0.64855311  0.10932046     0.15200
C535        C  0.09745290  0.49414412  0.92587288    -0.14400
C536        C  0.06166467  0.51921559  0.93440524    -0.29600
H537        H  0.10369112  0.46486002  0.94608389     0.14600
H538        H  0.05390724  0.54748188  0.91340412     0.15200
C539        C  0.05949276  0.57402469  0.01326759    -0.14400
C540        C  0.06243852  0.60930358  0.98619544    -0.29600
H541        H  0.08321021  0.56993401  0.04025103     0.14600
H542        H  0.03958334  0.61197569  0.95822976     0.15200
C543        C  0.98291749  0.56748640  0.07166439    -0.14400
C544        C  0.01270305  0.57422875  0.10453255    -0.29600
H545        H  0.95221189  0.58627137  0.07011388     0.14600
H546        H  0.04294640  0.55452011  0.10512912     0.15200
C547        C  0.91755284  0.49825289  0.05851000    -0.14400
C548        C  0.92132634  0.48758640  0.10157921    -0.29600
H549        H  0.88496488  0.50480484  0.04408865     0.14600
H550        H  0.95350841  0.47798053  0.11515657     0.15200
C551        C  0.92756765  0.43478196  0.98583057    -0.14400
C552        C  0.91788223  0.40298735  0.01578275    -0.29600
H553        H  0.91057671  0.43548967  0.95410844     0.14600
H554        H  0.93526056  0.40375198  0.04749832     0.15200
C555        C  0.00878037  0.43809459  0.93259969    -0.14400
C556        C  0.98314193  0.43117698  0.89675812    -0.29600
H557        H  0.03754593  0.41718694  0.93878941     0.14600
H558        H  0.95400049  0.45189510  0.89150480     0.15200
C559        C  0.27235515  0.82869458  0.07725741    -0.14400
C560        C  0.27631638  0.84382921  0.11910268    -0.29600
H561        H  0.24955779  0.80091436  0.07212503     0.14600
H562        H  0.29657139  0.87254896  0.12737500     0.15200
C563        C  0.38741934  0.81592541  0.18795070    -0.14400
C564        C  0.42005998  0.79021292  0.17180025    -0.29600
H565        H  0.39106121  0.85179389  0.18911303     0.14600
H566        H  0.41735890  0.75428614  0.17454110     0.15200
C567        C  0.41976624  0.20340070  0.81308864    -0.14400
C568        C  0.38030993  0.21410987  0.83162671    -0.29600
H569        H  0.42535893  0.21252312  0.77864955     0.14600
H570        H  0.37453760  0.20902290  0.86675418     0.15200
C571        C  0.29702675  0.08681780  0.80772807    -0.14400
C572        C  0.28592781  0.12515973  0.82813596    -0.29600
H573        H  0.29239758  0.08456714  0.77202203     0.14600
H574        H  0.28683275  0.12787667  0.86398471     0.15200
C575        C  0.67229027  0.18162253  0.11454341    -0.14400
C576        C  0.69138274  0.15297084  0.08600797    -0.29600
H577        H  0.63925519  0.19466062  0.10776755     0.14600
H578        H  0.72488822  0.14102373  0.09258104     0.15200
C579        C  0.68697725  0.05904664  0.19952318    -0.14400
C580        C  0.66772203  0.09746702  0.21232816    -0.29600
H581        H  0.72266740  0.05491643  0.20422189     0.14600
H582        H  0.63182272  0.10147537  0.21128782     0.15200
C583        C  0.42904550  0.99076348  0.92655559    -0.14400
C584        C  0.38925670  0.01058906  0.92391951    -0.29600
H585        H  0.44151286  0.97193537  0.89865159     0.14600
H586        H  0.37858548  0.03184584  0.95085520     0.15200
C587        C  0.40932812  0.93773405  0.00443673    -0.14400
C588        C  0.40949761  0.89328127  0.00360585    -0.29600
H589        H  0.37778692  0.95534292  0.00423595     0.14600
H590        H  0.44059940  0.87553150  0.99923718     0.15200
C591        C  0.56032285  0.05556412  0.00909982    -0.14400
C592        C  0.59665966  0.05948902  0.98388687    -0.29600
H593        H  0.55570695  0.07735993  0.03726436     0.14600
H594        H  0.60055752  0.03784609  0.95545127     0.15200
C595        C  0.50367297  0.05433444  0.92971463    -0.14400
C596        C  0.47604142  0.08801461  0.91981796    -0.29600
H597        H  0.53453261  0.05033107  0.91183660     0.14600
H598        H  0.44504047  0.09075437  0.93797989     0.15200
C599        C  0.48036938  0.92398335  0.06921698    -0.14400
C600        C  0.50943101  0.89024919  0.07239432    -0.29600
H601        H  0.45173535  0.92585850  0.09084165     0.14600
H602        H  0.53757952  0.88930035  0.04997643     0.15200
C603        C  0.56035907  0.97796787  0.06476418    -0.14400
C604        C  0.56500662  0.99948494  0.10324543    -0.29600
H605        H  0.58512681  0.95393435  0.05459203     0.14600
H606        H  0.54171894  0.02564827  0.11165912     0.15200
C607        C  0.78419116  0.87473276  0.34041991    -0.14400
C608        C  0.82292979  0.89641246  0.33306982    -0.29600
H609        H  0.76057198  0.88723542  0.36440070     0.14600
H610        H  0.84685182  0.88235629  0.31021189     0.15200
C611        C  0.71328230  0.87823251  0.17035424    -0.14400
C612        C  0.67252887  0.89568779  0.17687725    -0.29600
H613        H  0.73716111  0.89488273  0.14909137     0.14600
H614        H  0.64832833  0.87713512  0.19623349     0.15200
C615        C  0.88911473  0.69810271  0.18090084    -0.14400
C616        C  0.91816056  0.67100074  0.20193950    -0.29600
H617        H  0.89470407  0.70824845  0.14681683     0.14600
H618        H  0.91309253  0.66259771  0.23659074     0.15200
C619        C  0.91999288  0.78790296  0.32887587    -0.14400
C620        C  0.87919916  0.78078799  0.34612104    -0.29600
H621        H  0.92514526  0.78052090  0.29400532     0.14600
H622        H  0.87315039  0.78409553  0.38137650     0.15200
C623        C  0.70424591  0.60423810  0.32532444    -0.14400
C624        C  0.69743568  0.56672702  0.30181457    -0.29600
H625        H  0.69754064  0.60567977  0.36059227     0.14600
H626        H  0.70812674  0.56590953  0.26743709     0.15200
C627        C  0.80939117  0.56840517  0.19437206    -0.14400
C628        C  0.80170036  0.60738140  0.17338678    -0.29600
H629        H  0.80034046  0.56551913  0.22911595     0.14600
H630        H  0.80681656  0.61068582  0.13794841     0.15200
C631        C  0.58299126  0.78034022  0.17372972    -0.14400
C632        C  0.62452255  0.77929709  0.15720849    -0.29600
H633        H  0.57777052  0.76746938  0.20707238     0.14600
H634        H  0.63147666  0.78819164  0.12307021     0.15200
C635        C  0.60965275  0.69337256  0.31741819    -0.14400
C636        C  0.57492496  0.67858290  0.29264129    -0.29600
H637        H  0.60790988  0.69350423  0.35334225     0.14600
H638        H  0.57672226  0.68207628  0.25681343     0.15200
C639        C  0.87815421  0.33022160  0.79127624    -0.14400
C640        C  0.91803250  0.31202210  0.80151265    -0.29600
H641        H  0.87318046  0.36585085  0.79307451     0.14600
H642        H  0.92294833  0.27674225  0.79581536     0.15200
C643        C  0.88244360  0.16928550  0.70578151    -0.14400
C644        C  0.91990797  0.19199570  0.69545619    -0.29600
H645        H  0.88049922  0.13347895  0.70232074     0.14600
H646        H  0.92170029  0.22728516  0.70284282     0.15200
C647        C  0.70963985  0.15566642  0.88264263    -0.14400
C648        C  0.70235318  0.17253551  0.92335743    -0.29600
H649        H  0.70536638  0.12048591  0.87612562     0.14600
H650        H  0.71067466  0.20716801  0.92945543     0.15200
C651        C  0.79550912  0.32190291  0.88789377    -0.14400
C652        C  0.82332776  0.30234830  0.91758591    -0.29600
H653        H  0.78445621  0.35578171  0.89297126     0.14600
H654        H  0.83255875  0.26785503  0.91280547     0.15200
C655        C  0.60922133  0.16345155  0.79634743    -0.14400
C656        C  0.58247358  0.17995956  0.82820934    -0.29600
H657        H  0.60050486  0.13274378  0.77960062     0.14600
H658        H  0.59154002  0.21090995  0.84435754     0.15200
C659        C  0.59198316  0.31999515  0.67358311    -0.14400
C660        C  0.61223478  0.32906426  0.71267934    -0.29600
H661        H  0.60685244  0.29588931  0.65146997     0.14600
H662        H  0.59912712  0.35459363  0.73425201     0.15200
C663        C  0.70317659  0.32514990  0.61565493    -0.14400
C664        C  0.69346990  0.30461293  0.57693663    -0.29600
H665        H  0.70285770  0.36108248  0.61815897     0.14600
H666        H  0.69766497  0.26883373  0.57482247     0.15200
C667        C  0.78707508  0.16189765  0.61854730    -0.14400
C668        C  0.81859670  0.17805332  0.59088423    -0.29600
H669        H  0.77223345  0.12954592  0.61248882     0.14600
H670        H  0.83295793  0.21055630  0.59737356     0.15200
C671        C  0.29968750  0.80052322  0.92011311    -0.14400
C672        C  0.32400450  0.78733082  0.88506006    -0.29600
H673        H  0.26378391  0.79557175  0.91903067     0.14600
H674        H  0.36012677  0.78858689  0.88546862     0.15200
C675        C  0.15996304  0.70932952  0.87223724    -0.14400
C676        C  0.17732844  0.70438749  0.91327687    -0.29600
H677        H  0.12441671  0.70618086  0.86618826     0.14600
H678        H  0.21248335  0.71176507  0.91847236     0.15200
C679        C  0.17658351  0.88700231  0.70412847    -0.14400
C680        C  0.19862049  0.92550176  0.69741946    -0.29600
H681        H  0.14084082  0.88442011  0.69916037     0.14600
H682        H  0.23374065  0.92761083  0.70632443     0.15200
C683        C  0.30776452  0.92318939  0.80514919    -0.14400
C684        C  0.33040716  0.88497751  0.79830078    -0.29600
H685        H  0.27314186  0.92458252  0.79435955     0.14600
H686        H  0.36590843  0.88289603  0.80497784     0.15200
C687        C  0.34369052  0.71291419  0.61631206    -0.14400
C688        C  0.32493901  0.70461818  0.57623934    -0.29600
H689        H  0.37921568  0.70915377  0.62195517     0.14600
H690        H  0.28982245  0.71222333  0.57149301     0.15200
C691        C  0.18397198  0.80377146  0.60709132    -0.14400
C692        C  0.20898139  0.82215801  0.57463987    -0.29600
H693        H  0.14790457  0.80283477  0.60443752     0.14600
H694        H  0.24504357  0.81961769  0.57686924     0.15200
C695        C  0.33483543  0.61684871  0.70248589    -0.14400
C696        C  0.31547824  0.57833714  0.68988283    -0.29600
H697        H  0.37067221  0.62132967  0.70072511     0.14600
H698        H  0.28005225  0.57362950  0.69566358     0.15200
C699        C  0.16443872  0.61633116  0.77782946    -0.14400
C700        C  0.17165665  0.59749588  0.81794401    -0.29600
H701        H  0.14136255  0.60144161  0.75429757     0.14600
H702        H  0.19314283  0.61437775  0.84168671     0.15200
loop_ 
_geom_bond_atom_site_label_1 
_geom_bond_atom_site_label_2 
_geom_bond_distance 
_geom_bond_site_symmetry_2 
_ccdc_geom_bond_type 
O1            C9   1.272       .  A
O1          Co21   1.990       .  S
O2           C10   1.276       .  A
O2          Co22   2.003       .  S
O3           C11   1.273       .  A
O3          Co23   2.004       .  S
O4           C12   1.270       .  A
O4          Co24   1.994       .  S
O5           C11   1.275       .  A
O5          Co22   1.994       .  S
O6           C12   1.271       .  A
O6          Co21   1.990       .  S
O7           C10   1.272       .  A
O7          Co24   2.013       .  S
O8            C9   1.271       .  A
O8          Co23   2.010       .  S
C9          C695   1.480       .  S
C10         C684   1.493       .  S
C11         C687   1.483       .  S
C12         C672   1.479       .  S
O13          C26   1.274       .  A
O13         Co21   2.016       .  S
O14          C27   1.271       .  A
O14         Co22   2.002       .  S
O15          C28   1.276       .  A
O15         Co23   1.996       .  S
O16          C29   1.268       .  A
O16         Co24   1.976       .  S
O17          C29   1.272       .  A
O17         Co22   2.005       .  S
O18          C28   1.272       .  A
O18         Co21   2.007       .  S
O19          C26   1.269       .  A
O19         Co24   1.981       .  S
O20          C27   1.276       .  A
O20         Co23   2.003       .  S
Co21         O25   2.095       .  S
Co22         O25   2.098       .  S
Co23         O25   2.101       .  S
Co24         O25   2.089       .  S
C26         C675   1.477       .  S
C27         C691   1.490       .  S
C28         C699   1.483       .  S
C29         C679   1.471       .  S
O30          C38   1.276       .  A
O30         Co50   1.997       .  S
O31          C39   1.271       .  A
O31         Co51   1.985       .  S
O32          C40   1.268       .  A
O32         Co52   1.998       .  S
O33          C41   1.270       .  A
O33         Co53   2.006       .  S
O34          C40   1.270       .  A
O34         Co51   1.989       .  S
O35          C41   1.273       .  A
O35         Co50   1.998       .  S
O36          C39   1.274       .  A
O36         Co53   2.018       .  S
O37          C38   1.276       .  A
O37         Co52   2.024       .  S
C38         C667   1.495       .  S
C39         C647   1.479       .  S
C40         C643   1.477       .  S
C41         C655   1.491       .  S
O42          C55   1.274       .  A
O42         Co50   2.015       .  S
O43          C56   1.274       .  A
O43         Co51   2.018       .  S
O44          C57   1.269       .  A
O44         Co52   1.985       .  S
O45          C58   1.274       .  A
O45         Co53   2.002       .  S
O46          C58   1.271       .  A
O46         Co51   2.012       .  S
O47          C57   1.270       .  A
O47         Co50   2.009       .  S
O48          C55   1.276       .  A
O48         Co53   1.993       .  S
O49          C56   1.273       .  A
O49         Co52   1.986       .  S
Co50         O54   2.108       .  S
Co51         O54   2.100       .  S
Co52         O54   2.097       .  S
Co53         O54   2.105       .  S
C55         C660   1.486       .  S
C56         C639   1.480       .  S
C57         C663   1.480       .  S
C58         C651   1.495       .  S
O59          C67   1.268       .  A
O59         Co79   1.981       .  S
O60          C68   1.273       .  A
O60         Co80   1.992       .  S
O61          C69   1.271       .  A
O61         Co81   2.006       .  S
O62          C70   1.273       .  A
O62         Co82   2.019       .  S
O63          C69   1.273       .  A
O63         Co80   1.990       .  S
O64          C70   1.272       .  A
O64         Co79   1.992       .  S
O65          C68   1.272       .  A
O65         Co82   2.006       .  S
O66          C67   1.273       .  A
O66         Co81   2.006       .  S
C67         C632   1.474       .  S
C68         C615   1.484       .  S
C69         C611   1.481       .  S
C70         C628   1.487       .  S
O71          C84   1.271       .  A
O71         Co79   2.000       .  S
O72          C85   1.273       .  A
O72         Co80   2.009       .  S
O73          C86   1.274       .  A
O73         Co81   1.998       .  S
O74          C87   1.271       .  A
O74         Co82   1.989       .  S
O75          C87   1.272       .  A
O75         Co80   2.005       .  S
O76          C86   1.273       .  A
O76         Co79   2.015       .  S
O77          C84   1.271       .  A
O77         Co82   1.990       .  S
O78          C85   1.275       .  A
O78         Co81   1.993       .  S
Co79         O83   2.095       .  S
Co80         O83   2.100       .  S
Co81         O83   2.100       .  S
Co82         O83   2.097       .  S
C84         C623   1.479       .  S
C85         C607   1.485       .  S
C86         C635   1.491       .  S
C87         C620   1.480       .  S
C88         C603   1.480       .  S
C88          C89   1.406   1_565  A
C88          C93   1.409       .  A
C89         C591   1.483       .  S
C89          C90   1.413   1_554  A
C90         C595   1.487       .  S
C90          C91   1.417   1_545  A
C91         C583   1.484       .  S
C91          C92   1.415   1_556  A
C92         C587   1.487       .  S
C92          C93   1.413       .  A
C93         C599   1.483       .  S
C94         C579   1.482       .  S
C94          C95   1.403       .  A
C94          C99   1.409   1_545  A
C95          C96   1.400   1_545  A
C95         H100   1.083       .  S
C96         C604   1.478       .  S
C96          C97   1.408       .  A
C97          C98   1.401       .  A
C97         H101   1.083       .  S
C98         C612   1.481       .  S
C98          C99   1.405       .  A
C99         H102   1.084       .  S
C103        C576   1.478       .  S
C103        C104   1.402       .  A
C103        C108   1.402       .  A
C104        C105   1.413   1_554  A
C104        H109   1.083       .  S
C105        C592   1.481       .  S
C105        C106   1.404       .  A
C106        C107   1.403       .  A
C106        H110   1.084       .  S
C107        C648   1.483       .  S
C107        C108   1.404   1_556  A
C108        H111   1.085       .  S
C112        C571   1.485       .  S
C112        C113   1.401       .  A
C112        C117   1.404       .  A
C113        C114   1.406       .  A
C113        H118   1.084       .  S
C114        C584   1.480       .  S
C114        C115   1.416   1_545  A
C115        C116   1.407       .  A
C115        H119   1.084       .  S
C116        C683   1.489       .  S
C116        C117   1.405   1_565  A
C117        H120   1.085       .  S
C121        C567   1.486       .  S
C121        C122   1.405       .  A
C121        C126   1.404       .  A
C122        C123   1.403       .  A
C122        H127   1.085       .  S
C123        C656   1.482       .  S
C123        C124   1.403       .  A
C124        C125   1.416       .  A
C124        H128   1.082       .  S
C125        C596   1.491       .  S
C125        C126   1.409       .  A
C126        H129   1.084       .  S
C130        C564   1.469       .  S
C130        C131   1.398       .  A
C130        C135   1.395       .  A
C131        C132   1.409       .  A
C131        H136   1.082       .  S
C132        C600   1.478       .  S
C132        C133   1.408       .  A
C133        C134   1.403       .  A
C133        H137   1.083       .  S
C134        C631   1.476       .  S
C134        C135   1.398       .  A
C135        H138   1.085       .  S
C139        C559   1.489       .  S
C139        C140   1.401   1_554  A
C139        C144   1.409       .  A
C140        C141   1.399       .  A
C140        H145   1.085       .  S
C141        C671   1.476       .  S
C141        C142   1.397       .  A
C142        C143   1.402   1_556  A
C142        H146   1.083       .  S
C143        C588   1.469       .  S
C143        C144   1.413       .  A
C144        H147   1.082       .  S
C148        C536   1.487       .  S
C148        C149   1.414   1_455  A
C148        C153   1.413   1_556  A
C149        C555   1.487   1_655  S
C149        C150   1.419       .  A
C150        C551   1.495       .  S
C150        C151   1.418   1_556  A
C151        C547   1.488       .  S
C151        C152   1.418       .  A
C152        C543   1.489       .  S
C152        C153   1.414   1_655  A
C153        C539   1.487       .  S
C154        C676   1.479       .  S
C154        C155   1.402       .  A
C154        C159   1.401       .  A
C155        C156   1.405       .  A
C155        H160   1.083       .  S
C156        C540   1.481       .  S
C156        C157   1.413   1_556  A
C157        C158   1.404       .  A
C157        H161   1.083       .  S
C158        C531   1.478       .  S
C158        C159   1.400   1_554  A
C159        H162   1.085       .  S
C163        C700   1.482       .  S
C163        C164   1.402       .  A
C163        C168   1.405       .  A
C164        C165   1.411       .  A
C164        H169   1.082       .  S
C165        C535   1.486       .  S
C165        C166   1.404       .  A
C166        C167   1.404       .  A
C166        H170   1.083       .  S
C167        C527   1.485       .  S
C167        C168   1.409       .  A
C168        H171   1.084       .  S
C172        C616   1.471       .  S
C172        C173   1.395       .  A
C172        C177   1.399       .  A
C173        C174   1.400   1_655  A
C173        H178   1.086       .  S
C174        C523   1.480       .  S
C174        C175   1.405       .  A
C175        C176   1.413       .  A
C175        H179   1.084       .  S
C176        C544   1.487       .  S
C176        C177   1.414   1_455  A
C177        H180   1.080       .  S
C181        C627   1.485       .  S
C181        C182   1.405       .  A
C181        C186   1.403       .  A
C182        C183   1.410       .  A
C182        H187   1.083       .  S
C183        C548   1.475       .  S
C183        C184   1.407       .  A
C184        C185   1.404       .  A
C184        H188   1.084       .  S
C185        C520   1.483       .  S
C185        C186   1.403       .  A
C186        H189   1.085       .  S
C190        C516   1.481       .  S
C190        C191   1.406       .  A
C190        C195   1.403   1_455  A
C191        C192   1.415   1_455  A
C191        H196   1.083       .  S
C192        C556   1.483       .  S
C192        C193   1.404       .  A
C193        C194   1.401       .  A
C193        H197   1.084       .  S
C194        C640   1.482       .  S
C194        C195   1.404       .  A
C195        H198   1.085   1_655  S
C199        C511   1.486       .  S
C199        C200   1.404       .  A
C199        C204   1.402   1_554  A
C200        C201   1.413       .  A
C200        H205   1.084       .  S
C201        C552   1.496       .  S
C201        C202   1.420   1_554  A
C202        C203   1.406       .  A
C202        H206   1.081       .  S
C203        C652   1.485       .  S
C203        C204   1.400       .  A
C204        H207   1.085       .  S
C208        C503   1.481       .  S
C208        C209   1.405       .  A
C208        C213   1.408       .  A
C209        C507   1.486       .  S
C209        C210   1.415       .  A
C210        C492   1.483       .  S
C210        C211   1.418       .  A
C211        C487   1.481       .  S
C211        C212   1.414       .  A
C212        C495   1.487       .  S
C212        C213   1.409       .  A
C213        C499   1.480       .  S
C214        C659   1.484       .  S
C214        C215   1.406       .  A
C214        C219   1.405       .  A
C215        C216   1.408       .  A
C215        H220   1.084       .  S
C216        C483   1.484       .  S
C216        C217   1.402       .  A
C217        C218   1.400       .  A
C217        H221   1.083       .  S
C218        C508   1.484       .  S
C218        C219   1.413       .  A
C219        H222   1.083       .  S
C223        C688   1.482       .  S
C223        C224   1.405       .  A
C223        C228   1.408       .  A
C224        C225   1.405       .  A
C224        H229   1.083       .  S
C225        C488   1.479       .  S
C225        C226   1.408       .  A
C226        C227   1.402       .  A
C226        H230   1.084       .  S
C227        C479   1.486       .  S
C227        C228   1.403       .  A
C228        H231   1.084       .  S
C232        C624   1.476       .  S
C232        C233   1.398       .  A
C232        C237   1.400       .  A
C233        C234   1.398       .  A
C233        H238   1.085       .  S
C234        C476   1.476       .  S
C234        C235   1.401       .  A
C235        C236   1.406       .  A
C235        H239   1.083       .  S
C236        C500   1.478       .  S
C236        C237   1.412       .  A
C237        H240   1.081       .  S
C241        C636   1.486       .  S
C241        C242   1.404       .  A
C241        C246   1.401       .  A
C242        C243   1.417       .  A
C242        H247   1.081       .  S
C243        C496   1.487       .  S
C243        C244   1.410       .  A
C244        C245   1.404       .  A
C244        H248   1.083       .  S
C245        C471   1.487       .  S
C245        C246   1.403       .  A
C246        H249   1.085       .  S
C250        C696   1.480       .  S
C250        C251   1.404       .  A
C250        C255   1.403       .  A
C251        C252   1.407       .  A
C251        H256   1.084       .  S
C252        C491   1.485       .  S
C252        C253   1.413       .  A
C253        C254   1.400       .  A
C253        H257   1.082       .  S
C254        C467   1.475       .  S
C254        C255   1.400       .  A
C255        H258   1.085       .  S
C259        C664   1.484       .  S
C259        C260   1.400       .  A
C259        C264   1.408       .  A
C260        C261   1.400       .  A
C260        H265   1.083       .  S
C261        C504   1.476       .  S
C261        C262   1.412       .  A
C262        C263   1.404       .  A
C262        H266   1.084       .  S
C263        C463   1.482       .  S
C263        C264   1.405       .  A
C264        H267   1.085       .  S
C268        C455   1.478       .  S
C268        C269   1.408   1_545  A
C268        C273   1.406       .  A
C269        C459   1.483       .  S
C269        C270   1.406       .  A
C270        C440   1.490       .  S
C270        C271   1.417   1_455  A
C271        C444   1.484       .  S
C271        C272   1.421   1_565  A
C272        C447   1.491       .  S
C272        C273   1.418   1_655  A
C273        C451   1.486       .  S
C274        C435   1.480       .  S
C274        C275   1.406       .  A
C274        C279   1.402       .  A
C275        C276   1.416   1_455  A
C275        H280   1.083       .  S
C276        C452   1.480       .  S
C276        C277   1.402       .  A
C277        C278   1.398       .  A
C277        H281   1.082       .  S
C278        C644   1.478       .  S
C278        C279   1.402   1_655  A
C279        H282   1.085       .  S
C283        C431   1.477       .  S
C283        C284   1.406       .  A
C283        C288   1.402       .  A
C284        C285   1.411       .  A
C284        H289   1.083       .  S
C285        C456   1.468   1_545  S
C285        C286   1.398   1_545  A
C286        C287   1.395       .  A
C286        H290   1.084       .  S
C287        C680   1.473       .  S
C287        C288   1.398   1_565  A
C288        H291   1.085       .  S
C292        C692   1.479       .  S
C292        C293   1.403       .  A
C292        C297   1.398       .  A
C293        C294   1.417       .  A
C293        H298   1.083       .  S
C294        C460   1.484       .  S
C294        C295   1.409       .  A
C295        C296   1.402       .  A
C295        H299   1.083       .  S
C296        C427   1.480       .  S
C296        C297   1.400       .  A
C297        H300   1.086       .  S
C301        C423   1.485       .  S
C301        C302   1.408       .  A
C301        C306   1.402       .  A
C302        C303   1.405       .  A
C302        H307   1.085       .  S
C303        C668   1.486       .  S
C303        C304   1.407       .  A
C304        C305   1.411       .  A
C304        H308   1.081       .  S
C305        C448   1.478       .  S
C305        C306   1.402       .  A
C306        H309   1.083       .  S
C310        C419   1.482       .  S
C310        C311   1.408   1_545  A
C310        C315   1.400       .  A
C311        C312   1.406       .  A
C311        H316   1.084       .  S
C312        C608   1.482       .  S
C312        C313   1.404       .  A
C313        C314   1.412       .  A
C313        H317   1.082       .  S
C314        C443   1.483   1_565  S
C314        C315   1.401   1_565  A
C315        H318   1.084       .  S
C319        C415   1.480       .  S
C319        C320   1.404       .  A
C319        C324   1.399       .  A
C320        C321   1.416   1_455  A
C320        H325   1.083       .  S
C321        C439   1.485       .  S
C321        C322   1.407       .  A
C322        C323   1.403       .  A
C322        H326   1.083       .  S
C323        C619   1.480       .  S
C323        C324   1.402   1_655  A
C324        H327   1.085       .  S
O328        C336   1.271       .  A
O328       Co348   1.988       .  S
O329        C337   1.273       .  A
O329       Co349   1.986       .  S
O330        C338   1.270       .  A
O330       Co350   2.007       .  S
O331        C339   1.270       .  A
O331       Co351   2.013       .  S
O332        C338   1.273       .  A
O332       Co349   2.002       .  S
O333        C339   1.271       .  A
O333       Co348   1.986       .  S
O334        C337   1.274       .  A
O334       Co351   2.012       .  S
O335        C336   1.274       .  A
O335       Co350   2.008       .  S
C336        C432   1.480       .  S
C337        C468   1.483       .  S
C338        C436   1.493       .  S
C339        C484   1.478       .  S
O340        C353   1.273       .  A
O340       Co348   2.014       .  S
O341        C354   1.275       .  A
O341       Co349   2.017       .  S
O342        C355   1.273       .  A
O342       Co350   1.997       .  S
O343        C356   1.272       .  A
O343       Co351   1.992       .  S
O344        C356   1.270       .  A
O344       Co349   2.010       .  S
O345        C355   1.271       .  A
O345       Co348   2.008       .  S
O346        C353   1.274       .  A
O346       Co351   1.995       .  S
O347        C354   1.275       .  A
O347       Co350   1.994       .  S
Co348       O352   2.099       .  S
Co349       O352   2.104       .  S
Co350       O352   2.098       .  S
Co351       O352   2.098       .  S
C353        C568   1.485       .  S
C354        C515   1.492       .  S
C355        C572   1.486       .  S
C356        C528   1.483       .  S
O357        C365   1.271       .  A
O357       Co377   2.007       .  S
O358        C366   1.274       .  A
O358       Co378   2.017       .  S
O359        C367   1.276       .  A
O359       Co379   2.005       .  S
O360        C368   1.274       .  A
O360       Co380   1.992       .  S
O361        C367   1.271       .  A
O361       Co378   2.006       .  S
O362        C368   1.272       .  A
O362       Co377   2.010       .  S
O363        C366   1.272       .  A
O363       Co380   1.990       .  S
O364        C365   1.273       .  A
O364       Co379   1.989       .  S
C365        C420   1.478       .  S
C366        C519   1.485       .  S
C367        C512   1.491       .  S
C368        C424   1.482       .  S
O369        C382   1.276       .  A
O369       Co377   2.005       .  S
O370        C383   1.273       .  A
O370       Co378   1.994       .  S
O371        C384   1.274       .  A
O371       Co379   2.013       .  S
O372        C385   1.273       .  A
O372       Co380   2.004       .  S
O373        C385   1.270       .  A
O373       Co378   1.984       .  S
O374        C384   1.274       .  A
O374       Co377   1.988       .  S
O375        C382   1.270       .  A
O375       Co380   2.006       .  S
O376        C383   1.271       .  A
O376       Co379   2.009       .  S
Co377       O381   2.102       .  S
Co378       O381   2.099       .  S
Co379       O381   2.097       .  S
Co380       O381   2.095       .  S
C382        C464   1.495       .  S
C383        C575   1.489       .  S
C384        C580   1.479       .  S
C385        C475   1.475       .  S
O386        C394   1.274       .  A
O386       Co406   2.006       .  S
O387        C395   1.282       .  A
O387       Co407   1.992       .  S
O388        C396   1.310       .  A
O388       Co408   2.134       .  S
O389        C397   1.267       .  A
O389       Co409   2.008       .  S
O390        C396   1.286       .  A
O390       Co407   1.900       .  S
O391        C397   1.266       .  A
O391       Co406   1.989       .  S
O392        C395   1.281       .  A
O392       Co409   2.008       .  S
O393        C394   1.268       .  A
O393       Co408   1.983       .  S
C394        C472   1.482       .  S
C395        C524   1.485       .  S
C396        C480   1.481       .  S
C397        C532   1.484       .  S
O398        C411   1.284       .  A
O398       Co406   2.015       .  S
O399        C412   1.253       .  A
O399       Co407   2.032       .  S
O400        C413   1.264       .  A
O400       Co408   1.989       .  S
O401        C414   1.283       .  A
O401       Co409   2.004       .  S
O402        C414   1.280       .  A
O402       Co407   2.012       .  S
O403        C413   1.265       .  A
O403       Co406   1.993       .  S
O404        C411   1.284       .  A
O404       Co409   1.999       .  S
O405        C412   1.246       .  A
O405       Co408   1.981       .  S
Co406       O410   2.055       .  S
Co407       O410   1.957       .  S
Co408       O410   2.090       .  S
Co409       O410   2.049       .  S
C411        C560   1.481       .  S
C412        C428   1.479       .  S
C413        C563   1.474       .  S
C414        C416   1.487       .  S
C415        C416   1.349       .  D
C415        H417   1.087       .  S
C416        H418   1.086       .  S
C419        C420   1.355       .  D
C419        H421   1.088       .  S
C420        H422   1.085       .  S
C423        C424   1.355       .  D
C423        H425   1.088       .  S
C424        H426   1.085       .  S
C427        C428   1.350       .  D
C427        H429   1.089       .  S
C428        H430   1.085       .  S
C431        C432   1.348       .  D
C431        H433   1.089       .  S
C432        H434   1.085       .  S
C435        C436   1.354       .  D
C435        H437   1.086       .  S
C436        H438   1.086       .  S
C439        C440   1.341   1_655  D
C439        H441   1.086       .  S
C440        H442   1.086       .  S
C443        C444   1.340   1_545  D
C443        H445   1.088       .  S
C444        H446   1.083       .  S
C447        C448   1.341       .  D
C447        H449   1.087       .  S
C448        H450   1.087       .  S
C451        C452   1.338   1_455  D
C451        H453   1.086       .  S
C452        H454   1.088       .  S
C455        C456   1.335   1_545  D
C455        H457   1.086       .  S
C456        H458   1.088       .  S
C459        C460   1.339       .  D
C459        H461   1.085       .  S
C460        H462   1.087       .  S
C463        C464   1.357       .  D
C463        H465   1.086       .  S
C464        H466   1.086       .  S
C467        C468   1.349       .  D
C467        H469   1.087       .  S
C468        H470   1.086       .  S
C471        C472   1.354       .  D
C471        H473   1.090       .  S
C472        H474   1.085       .  S
C475        C476   1.348       .  D
C475        H477   1.085       .  S
C476        H478   1.089       .  S
C479        C480   1.349       .  D
C479        H481   1.087       .  S
C480        H482   1.086       .  S
C483        C484   1.354       .  D
C483        H485   1.087       .  S
C484        H486   1.085       .  S
C487        C488   1.342       .  D
C487        H489   1.086       .  S
C488        H490   1.087       .  S
C491        C492   1.342       .  D
C491        H493   1.087       .  S
C492        H494   1.084       .  S
C495        C496   1.343       .  D
C495        H497   1.084       .  S
C496        H498   1.087       .  S
C499        C500   1.341       .  D
C499        H501   1.084       .  S
C500        H502   1.087       .  S
C503        C504   1.336       .  D
C503        H505   1.086       .  S
C504        H506   1.087       .  S
C507        C508   1.339       .  D
C507        H509   1.086       .  S
C508        H510   1.086       .  S
C511        C512   1.355       .  D
C511        H513   1.088       .  S
C512        H514   1.086       .  S
C515        C516   1.353       .  D
C515        H517   1.086       .  S
C516        H518   1.086       .  S
C519        C520   1.351       .  D
C519        H521   1.086       .  S
C520        H522   1.088       .  S
C523        C524   1.352       .  D
C523        H525   1.088       .  S
C524        H526   1.085       .  S
C527        C528   1.354       .  D
C527        H529   1.087       .  S
C528        H530   1.085       .  S
C531        C532   1.348       .  D
C531        H533   1.087       .  S
C532        H534   1.086       .  S
C535        C536   1.342       .  D
C535        H537   1.087       .  S
C536        H538   1.084       .  S
C539        C540   1.341   1_554  D
C539        H541   1.085       .  S
C540        H542   1.087       .  S
C543        C544   1.346   1_655  D
C543        H545   1.084       .  S
C544        H546   1.086       .  S
C547        C548   1.342       .  D
C547        H549   1.086       .  S
C548        H550   1.087       .  S
C551        C552   1.347   1_556  D
C551        H553   1.082       .  S
C552        H554   1.087       .  S
C555        C556   1.340   1_455  D
C555        H557   1.085       .  S
C556        H558   1.087       .  S
C559        C560   1.348       .  D
C559        H561   1.090       .  S
C560        H562   1.085       .  S
C563        C564   1.346       .  D
C563        H565   1.086       .  S
C564        H566   1.088       .  S
C567        C568   1.354       .  D
C567        H569   1.088       .  S
C568        H570   1.085       .  S
C571        C572   1.354       .  D
C571        H573   1.088       .  S
C572        H574   1.085       .  S
C575        C576   1.353       .  D
C575        H577   1.086       .  S
C576        H578   1.086       .  S
C579        C580   1.354       .  D
C579        H581   1.087       .  S
C580        H582   1.085       .  S
C583        C584   1.339   1_565  D
C583        H585   1.086       .  S
C584        H586   1.087       .  S
C587        C588   1.339       .  D
C587        H589   1.087       .  S
C588        H590   1.087   1_554  S
C591        C592   1.339   1_554  D
C591        H593   1.086       .  S
C592        H594   1.087       .  S
C595        C596   1.344       .  D
C595        H597   1.083       .  S
C596        H598   1.087       .  S
C599        C600   1.344       .  D
C599        H601   1.085       .  S
C600        H602   1.087       .  S
C603        C604   1.338       .  D
C603        H605   1.086       .  S
C604        H606   1.087   1_565  S
C607        C608   1.351       .  D
C607        H609   1.086       .  S
C608        H610   1.087       .  S
C611        C612   1.349       .  D
C611        H613   1.086       .  S
C612        H614   1.087       .  S
C615        C616   1.350       .  D
C615        H617   1.086       .  S
C616        H618   1.087       .  S
C619        C620   1.350       .  D
C619        H621   1.088       .  S
C620        H622   1.085       .  S
C623        C624   1.350       .  D
C623        H625   1.085       .  S
C624        H626   1.088       .  S
C627        C628   1.352       .  D
C627        H629   1.088       .  S
C628        H630   1.086       .  S
C631        C632   1.347       .  D
C631        H633   1.089       .  S
C632        H634   1.085       .  S
C635        C636   1.354       .  D
C635        H637   1.086       .  S
C636        H638   1.088       .  S
C639        C640   1.352       .  D
C639        H641   1.085       .  S
C640        H642   1.088       .  S
C643        C644   1.352       .  D
C643        H645   1.085       .  S
C644        H646   1.088       .  S
C647        C648   1.351       .  D
C647        H649   1.085       .  S
C648        H650   1.088       .  S
C651        C652   1.355       .  D
C651        H653   1.086       .  S
C652        H654   1.086       .  S
C655        C656   1.354       .  D
C655        H657   1.086       .  S
C656        H658   1.086       .  S
C659        C660   1.352       .  D
C659        H661   1.087       .  S
C660        H662   1.086       .  S
C663        C664   1.353       .  D
C663        H665   1.085       .  S
C664        H666   1.087       .  S
C667        C668   1.354       .  D
C667        H669   1.086       .  S
C668        H670   1.086       .  S
C671        C672   1.351       .  D
C671        H673   1.088       .  S
C672        H674   1.085       .  S
C675        C676   1.348       .  D
C675        H677   1.085       .  S
C676        H678   1.088       .  S
C679        C680   1.349       .  D
C679        H681   1.085       .  S
C680        H682   1.088       .  S
C683        C684   1.356       .  D
C683        H685   1.088       .  S
C684        H686   1.085       .  S
C687        C688   1.354       .  D
C687        H689   1.085       .  S
C688        H690   1.088       .  S
C691        C692   1.354       .  D
C691        H693   1.086       .  S
C692        H694   1.087       .  S
C695        C696   1.350       .  D
C695        H697   1.086       .  S
C696        H698   1.088       .  S
C699        C700   1.351       .  D
C699        H701   1.086       .  S
C700        H702   1.087       .  S
