geometry optimzed in LAMMPS
_audit_creation_date              2020-11-30 
_audit_creation_method            'lammps2cif' 
_symmetry_space_group_name_H-M    'P1' 
_symmetry_Int_Tables_number       1 
_symmetry_cell_setting            triclinic 
loop_ 
_symmetry_equiv_pos_as_xyz 
  x,y,z 
_cell_length_a                    57.57415455 
_cell_length_b                    57.57053008399501 
_cell_length_c                    36.7069621872096 
_cell_angle_alpha                 89.99888965180324 
_cell_angle_beta                  90.00046631791653 
_cell_angle_gamma                 126.34656962239382 
loop_ 
_atom_site_label 
_atom_site_type_symbol 
_atom_site_fract_x 
_atom_site_fract_y 
_atom_site_fract_z 
_atom_site_charge 
O1          O  0.78801590  0.26962613  0.19720417    -0.71200
O2          O  0.73279090  0.21255142  0.27233688    -0.72200
O3          O  0.73377642  0.21490324  0.19486841    -0.60800
O4          O  0.78720559  0.26751360  0.27459019    -0.69200
O5          O  0.76504036  0.28861252  0.27592832    -0.68700
O6          O  0.71184187  0.23623072  0.19658973    -0.60000
O7          O  0.71082249  0.23384788  0.27371415    -0.72500
O8          O  0.76585409  0.29073004  0.19885805    -0.71300
Cu9        Cu  0.76123757  0.24037855  0.23475076     1.04600
Cu10       Cu  0.73761854  0.26308585  0.23636996     1.04300
C11         C  0.78531809  0.28891140  0.18605235     0.95000
C12         C  0.71319018  0.21433063  0.28477366     0.94200
C13         C  0.71463988  0.21761120  0.18305146     0.86300
C14         C  0.78446719  0.28632964  0.28762916     0.92600
N15         N  0.38874730  0.85979470  0.05658168    -0.25500
N16         N  0.39528064  0.88273105  0.07493721    -0.33400
C17         C  0.39925547  0.87946998  0.11024187     0.02800
C18         C  0.39491506  0.85324998  0.11392680     0.08800
C19         C  0.38832956  0.84137124  0.07953937    -0.04300
H20         H  0.40574577  0.89538462  0.13129746     0.09500
H21         H  0.38463666  0.82135144  0.07146727     0.10700
Cu22       Cu  0.40089014  0.91824368  0.04995414     0.46000
Cu23       Cu  0.38372401  0.85538443  0.50076048     0.42000
Cu24       Cu  0.40428841  0.91840383  0.45055880     0.43900
N25         N  0.40896396  0.95186766  0.01718258    -0.32900
N26         N  0.41111916  0.95208389  0.48136930    -0.27200
C27         C  0.41905416  0.97777288  0.46878257    -0.03300
C28         C  0.42159892  0.99432691  0.99796027     0.08900
C29         C  0.41472798  0.97708636  0.02825332     0.02700
H30         H  0.42343962  0.98432775  0.44050813     0.10400
H31         H  0.41539044  0.98302473  0.05640296     0.09500
N32         N  0.39540322  0.88153029  0.42607506    -0.34400
N33         N  0.38726496  0.85815203  0.44464026    -0.26500
C34         C  0.38459889  0.83851962  0.42167459    -0.01800
C35         C  0.39129833  0.85013890  0.38711038     0.06800
C36         C  0.39814133  0.87741421  0.39069944     0.04900
H37         H  0.37939303  0.81786406  0.42982158     0.10000
H38         H  0.40554443  0.89343866  0.36952454     0.08900
N39         N  0.24029642  0.94799384  0.46191801    -0.25500
N40         N  0.26270592  0.95233314  0.44463783    -0.33400
C41         C  0.25572851  0.94493932  0.40944774     0.02800
C42         C  0.22765193  0.93558573  0.40460996     0.08800
C43         C  0.21838484  0.93761405  0.43828891    -0.04300
H44         H  0.26972282  0.94544024  0.38927465     0.09500
H45         H  0.19703021  0.93100195  0.44545120     0.10700
Cu46       Cu  0.30112322  0.96695080  0.47036515     0.44200
Cu47       Cu  0.23984919  0.95372333  0.51737685     0.42000
Cu48       Cu  0.30606816  0.98187464  0.06739169     0.43900
N49         N  0.33886504  0.98688020  0.50024448    -0.32900
N50         N  0.34119391  0.99394047  0.03508820    -0.27200
C51         C  0.36925619  0.01059127  0.04449547    -0.03300
C52         C  0.38515992  0.01357867  0.51425109     0.08900
C53         C  0.36529550  0.99839085  0.48677441     0.02700
H54         H  0.37746847  0.02067473  0.07083976     0.10400
H55         H  0.36990055  0.99768441  0.45838318     0.09500
N56         N  0.26650150  0.96465606  0.09202891    -0.34400
N57         N  0.24259183  0.95483811  0.07358598    -0.26500
C58         C  0.22023288  0.94239587  0.09680829    -0.01800
C59         C  0.23057083  0.94454498  0.13141719     0.06800
C60         C  0.25990803  0.95862987  0.12759283     0.04900
H61         H  0.19789380  0.93087983  0.08872680     0.10000
H62         H  0.27500932  0.96254404  0.14863020     0.08900
N63         N  0.50509854  0.25132093  0.05510927    -0.25500
N64         N  0.49629799  0.22773591  0.07364741    -0.33400
C65         C  0.49345987  0.23189636  0.10896581     0.02800
C66         C  0.50092149  0.25941201  0.11254138     0.08800
C67         C  0.50809335  0.27113382  0.07803575    -0.04300
H68         H  0.48564242  0.21578271  0.13011288     0.09500
H69         H  0.51392480  0.29203465  0.06990156     0.10700
Cu70       Cu  0.48690547  0.19065065  0.04922902     0.44200
Cu71       Cu  0.50952858  0.25415336  0.49893774     0.42000
Cu72       Cu  0.49108953  0.19110607  0.44967296     0.43900
N73         N  0.48017983  0.15700805  0.01847541    -0.32900
N74         N  0.48279370  0.15738306  0.48248075    -0.27200
C75         C  0.47670991  0.13203623  0.47137804    -0.03300
C76         C  0.47004613  0.11506537  0.00188083     0.08900
C77         C  0.47194068  0.13121490  0.03105355     0.02700
H78         H  0.47576318  0.12599051  0.44321228     0.10400
H79         H  0.46712307  0.12451732  0.05925462     0.09500
N80         N  0.49768988  0.22707563  0.42460121    -0.34400
N81         N  0.50497629  0.25027934  0.44295139    -0.26500
C82         C  0.50597424  0.26905350  0.42002816    -0.01800
C83         C  0.49897973  0.25712732  0.38565226     0.06800
C84         C  0.49379281  0.23050930  0.38932794     0.04900
H85         H  0.51030161  0.28935105  0.42812949     0.10000
H86         H  0.48676156  0.21445584  0.36829526     0.08900
N87         N  0.64909929  0.15434352  0.42636530    -0.25500
N88         N  0.62515104  0.14438680  0.40792831    -0.33400
C89         C  0.63170666  0.15033672  0.37234619     0.02800
C90         C  0.66105477  0.16451497  0.36849725     0.08800
C91         C  0.67143951  0.16679518  0.40311230    -0.04300
H92         H  0.61657144  0.14634198  0.35131254     0.09500
H93         H  0.69379696  0.17844628  0.41117613     0.10700
Cu94       Cu  0.58555488  0.12714637  0.43250188     0.44200
Cu95       Cu  0.65191639  0.15574748  0.48252123     0.42000
Cu96       Cu  0.59045665  0.14207676  0.02955039     0.43900
N97         N  0.55041279  0.11508918  0.46476982    -0.32900
N98         N  0.55269590  0.12224302  0.99969965    -0.27200
C99         C  0.52625511  0.11067597  0.01317861    -0.03300
C100        C  0.50636379  0.09538611  0.48555449     0.08900
C101        C  0.52234693  0.09846657  0.45536785     0.02700
H102        H  0.52162371  0.11121585  0.04160672     0.10400
H103        H  0.51412270  0.08839186  0.42902177     0.09500
N104        N  0.62897757  0.15700211  0.05525551    -0.34400
N105        N  0.65146247  0.16152149  0.03796045    -0.26500
C106        C  0.67342385  0.17209782  0.06156664    -0.01800
C107        C  0.66411352  0.17407023  0.09524875     0.06800
C108        C  0.63595579  0.16447455  0.09042975     0.04900
H109        H  0.69482788  0.17886029  0.05439125     0.10000
H110        H  0.62189449  0.16384805  0.11060966     0.08900
C111        C  0.41654723  0.03411860  0.50917844     0.04000
C112        C  0.43317649  0.02481499  0.49780135     0.04000
C113        C  0.46217258  0.04525604  0.48830669    -0.16500
C114        C  0.47496740  0.07485589  0.49058444     0.04000
C115        C  0.45833160  0.08415961  0.50194757     0.04000
C116        C  0.42933789  0.06371666  0.51145121    -0.16500
H117        H  0.41632853  0.07087377  0.51914791     0.06100
H118        H  0.47518065  0.03809582  0.48061740     0.06100
O119        O  0.24741517  0.59721169  0.28017138    -0.71200
O120        O  0.20826726  0.61417527  0.20583318    -0.72200
O121        O  0.20601813  0.60894886  0.28297417    -0.60800
O122        O  0.24952786  0.60221200  0.20316932    -0.69200
O123        O  0.21412289  0.55535559  0.19865500    -0.68700
O124        O  0.17068889  0.56207671  0.27837975    -0.60000
O125        O  0.17287220  0.56732648  0.20117576    -0.72500
O126        O  0.21213432  0.55031624  0.27567662    -0.71300
Cu127      Cu  0.22903108  0.60728834  0.24321208     1.04600
Cu128      Cu  0.19118679  0.55711365  0.23830192     1.04300
C129        C  0.23596243  0.57117662  0.28953697     0.95000
C130        C  0.18455055  0.59340623  0.19170389     0.94200
C131        C  0.18164159  0.58655219  0.29326828     0.86300
C132        C  0.23858700  0.57766202  0.18847551     0.92600
O133        O  0.18057285  0.87545365  0.22641679    -0.71200
O134        O  0.12551614  0.81894967  0.30152300    -0.72200
O135        O  0.12621582  0.82082402  0.22448488    -0.60800
O136        O  0.17964931  0.87332324  0.30353657    -0.69200
O137        O  0.15791301  0.89485476  0.30511487    -0.68700
O138        O  0.10425694  0.84213624  0.22569562    -0.60000
O139        O  0.10354539  0.84024958  0.30305700    -0.72500
O140        O  0.15881590  0.89696513  0.22764454    -0.71300
Cu141      Cu  0.15375376  0.84640073  0.26389719     1.04600
Cu142      Cu  0.13035059  0.86933077  0.26537041     1.04300
C143        C  0.17831999  0.89502157  0.21524355     0.95000
C144        C  0.10614111  0.82091425  0.31429914     0.94200
C145        C  0.10684249  0.82318648  0.21278661     0.86300
C146        C  0.17698458  0.89206387  0.31695942     0.92600
N147        N  0.13758919  0.60233636  0.43757190    -0.25500
N148        N  0.11335373  0.59268859  0.42011345    -0.33400
C149        C  0.11594445  0.58743056  0.38517021     0.02800
C150        C  0.14311225  0.59414059  0.38074735     0.08800
C151        C  0.15626846  0.60346703  0.41433300    -0.04300
H152        H  0.09921759  0.57905925  0.36476179     0.09500
H153        H  0.17760814  0.61007430  0.42156939     0.10700
Cu154      Cu  0.07810860  0.58682130  0.44543959     0.44200
Cu155      Cu  0.14326369  0.61136655  0.99279032     0.42000
Cu156      Cu  0.08439426  0.60161106  0.04328938     0.43900
N157        N  0.04705934  0.58500447  0.47647171    -0.32900
N158        N  0.04978501  0.59159027  0.01139190    -0.27200
C159        C  0.02557707  0.58776636  0.02296772    -0.03300
C160        C  0.00677830  0.57819512  0.49402013     0.08900
C161        C  0.02086996  0.57632942  0.46505277     0.02700
H162        H  0.02132993  0.59013290  0.05092242     0.10400
H163        H  0.01244476  0.56853669  0.43792195     0.09500
N164        N  0.12011231  0.60769521  0.06783904    -0.34400
N165        N  0.14186803  0.61181982  0.04903631    -0.26500
C166        C  0.16042991  0.61254759  0.07205272    -0.01800
C167        C  0.14983206  0.60867811  0.10691117     0.06800
C168        C  0.12423603  0.60558175  0.10345636     0.04900
H169        H  0.17933265  0.61408010  0.06376506     0.10000
H170        H  0.10905122  0.60070179  0.12488341     0.08900
N171        N  0.04759379  0.75833668  0.07064640    -0.25500
N172        N  0.03807918  0.73474904  0.08966099    -0.33400
C173        C  0.04439244  0.74185821  0.12504724     0.02800
C174        C  0.05837509  0.77121419  0.12816550     0.08800
C175        C  0.06016095  0.78103852  0.09333044    -0.04300
H176        H  0.04072539  0.72709032  0.14643307     0.09500
H177        H  0.07144546  0.80324084  0.08474123     0.10700
Cu178      Cu  0.02099339  0.69498596  0.06597039     0.44200
Cu179      Cu  0.04780626  0.75988548  0.01444416     0.42000
Cu180      Cu  0.03619871  0.69869246  0.46924460     0.43900
N181        N  0.00931448  0.65962066  0.03466698    -0.32900
N182        N  0.01664546  0.66152472  0.50008515    -0.27200
C183        C  0.00492705  0.63492084  0.48715217    -0.03300
C184        C  0.98916901  0.61531744  0.01468212     0.08900
C185        C  0.99213792  0.63165102  0.04437961     0.02700
H186        H  0.00560942  0.62999167  0.45889814     0.10400
H187        H  0.98147303  0.62374376  0.07047407     0.09500
N188        N  0.04821433  0.73580932  0.44224134    -0.34400
N189        N  0.05190357  0.75814262  0.45887093    -0.26500
C190        C  0.06062017  0.77919523  0.43441417    -0.01800
C191        C  0.06221952  0.76943596  0.40088816     0.06800
C192        C  0.05436887  0.74197226  0.40666441     0.04900
H193        H  0.06666462  0.80045050  0.44092689     0.10000
H194        H  0.05427991  0.72797823  0.38689478     0.08900
N195        N  0.84020020  0.35187008  0.04171071    -0.25500
N196        N  0.84396463  0.37426319  0.05826847    -0.33400
C197        C  0.83757983  0.36807809  0.09380242     0.02800
C198        C  0.82950174  0.34053552  0.09962438     0.08800
C199        C  0.83121246  0.33075933  0.06617266    -0.04300
H200        H  0.83769477  0.38212602  0.11350498     0.09500
H201        H  0.82506466  0.30946002  0.05970053     0.10700
Cu202      Cu  0.85645796  0.41150477  0.03119874     0.44200
Cu203      Cu  0.84434995  0.34997315  0.98611531     0.42000
Cu204      Cu  0.87137028  0.41482457  0.43438568     0.43900
N205        N  0.87660184  0.44867937  0.00028536    -0.32900
N206        N  0.88387026  0.45043056  0.46578498    -0.27200
C207        C  0.90127500  0.47838055  0.45599637    -0.03300
C208        C  0.90457467  0.49480739  0.98558174     0.08900
C209        C  0.88867928  0.47535875  0.01318804     0.02700
H210        H  0.91173736  0.48615903  0.42977059     0.10400
H211        H  0.88800904  0.48036833  0.04140864     0.09500
N212        N  0.85361355  0.37486795  0.41078120    -0.34400
N213        N  0.84400681  0.35129052  0.42987266    -0.26500
C214        C  0.83113401  0.32850257  0.40729665    -0.01800
C215        C  0.83281259  0.33825566  0.37244307     0.06800
C216        C  0.84705505  0.36766466  0.37544771     0.04900
H217        H  0.81979575  0.30631409  0.41597436     0.10000
H218        H  0.85082119  0.38243700  0.35401152     0.08900
N219        N  0.75195100  0.49805402  0.45077162    -0.25500
N220        N  0.77351919  0.50177358  0.43197119    -0.33400
C221        C  0.76925647  0.50355925  0.39629722     0.02800
C222        C  0.74376144  0.50067125  0.39282847     0.08800
C223        C  0.73338066  0.49727056  0.42772141    -0.04300
H224        H  0.78428249  0.50807578  0.37482291     0.09500
H225        H  0.71461112  0.49599269  0.43598325     0.10700
Cu226      Cu  0.80917936  0.50780922  0.45666263     0.44200
Cu227      Cu  0.75069253  0.49886744  0.00691798     0.42000
Cu228      Cu  0.81546499  0.52290966  0.05474603     0.43900
N229        N  0.84388812  0.51827173  0.48871612    -0.32900
N230        N  0.84664722  0.52499714  0.02362865    -0.27200
C231        C  0.87285753  0.53375297  0.03508364    -0.03300
C232        C  0.88706146  0.53205428  0.50622387     0.08900
C233        C  0.86809074  0.52203653  0.47724699     0.02700
H234        H  0.88122763  0.54149186  0.06224699     0.10400
H235        H  0.87223982  0.51933676  0.44939050     0.09500
N236        N  0.77995111  0.51657777  0.07996714    -0.34400
N237        N  0.75587513  0.50713606  0.06223885    -0.26500
C238        C  0.73692627  0.50559179  0.08538865    -0.01800
C239        C  0.74972990  0.51442698  0.11921481     0.06800
C240        C  0.77698247  0.52128997  0.11501730     0.04900
H241        H  0.71565751  0.49907683  0.07792672     0.10000
H242        H  0.79352326  0.52943747  0.13564460     0.08900
C243        C  0.96800737  0.58401229  0.00968252     0.04000
C244        C  0.97625458  0.56714860  0.99550274     0.04000
C245        C  0.95504729  0.53844241  0.98558841    -0.16500
C246        C  0.92575147  0.52613004  0.99039052     0.04000
C247        C  0.91750653  0.54300522  0.00453046     0.04000
C248        C  0.93870955  0.57170310  0.01444929    -0.16500
H249        H  0.93233011  0.58496881  0.02410713     0.06100
H250        H  0.96142128  0.52516954  0.97594192     0.06100
O251        O  0.46499842  0.28551987  0.20980342    -0.71200
O252        O  0.45093133  0.32544397  0.28652289    -0.72200
O253        O  0.45306522  0.32679007  0.20934299    -0.60800
O254        O  0.46304618  0.28415599  0.28724060    -0.69200
O255        O  0.51000375  0.31960711  0.28910511    -0.68700
O256        O  0.50005215  0.36217333  0.21132195    -0.60000
O257        O  0.49791008  0.36089066  0.28848288    -0.72500
O258        O  0.51199783  0.32090279  0.21166549    -0.71300
Cu259      Cu  0.45635469  0.30420956  0.24818188     1.04600
Cu260      Cu  0.50664933  0.34212483  0.25024557     1.04300
C261        C  0.49062684  0.29705252  0.19852928     0.95000
C262        C  0.47220101  0.34948293  0.29935300     0.94200
C263        C  0.47501846  0.35113699  0.19816613     0.86300
C264        C  0.48811985  0.29526331  0.30038068     0.92600
O265        O  0.68089735  0.55850001  0.22422764    -0.71200
O266        O  0.72036860  0.54157615  0.29848829    -0.72200
O267        O  0.72209235  0.54640947  0.22128988    -0.60800
O268        O  0.67938189  0.55388804  0.30125668    -0.69200
O269        O  0.64377624  0.50705903  0.29721390    -0.68700
O270        O  0.68658688  0.49956079  0.21711825    -0.60000
O271        O  0.68478790  0.49475068  0.29429943    -0.72500
O272        O  0.64542190  0.51163165  0.22018242    -0.71300
Cu273      Cu  0.70195576  0.55174435  0.26146808     1.04600
Cu274      Cu  0.66390744  0.50159673  0.25704515     1.04300
C275        C  0.65693615  0.53764365  0.21063741     0.95000
C276        C  0.70864757  0.51552498  0.30813823     0.94200
C277        C  0.71096506  0.52183729  0.20659424     0.86300
C278        C  0.65492794  0.53171821  0.31170417     0.92600
O279        O  0.39688823  0.75019229  0.21117948    -0.71200
O280        O  0.38155727  0.78939223  0.28774747    -0.72200
O281        O  0.38423193  0.79105453  0.21035876    -0.60800
O282        O  0.39408575  0.74855908  0.28831404    -0.69200
O283        O  0.44095952  0.78425278  0.29090192    -0.68700
O284        O  0.43107845  0.82681264  0.21283894    -0.60000
O285        O  0.42844289  0.82507969  0.29023172    -0.72500
O286        O  0.44375211  0.78593547  0.21375060    -0.71300
Cu287      Cu  0.38753662  0.76855900  0.24927298     1.04600
Cu288      Cu  0.43770992  0.80679924  0.25199735     1.04300
C289        C  0.42273148  0.76185861  0.20066431     0.95000
C290        C  0.40267657  0.81327106  0.30115818     0.94200
C291        C  0.40606940  0.81554133  0.19937747     0.86300
C292        C  0.41905650  0.75976632  0.30179910     0.92600
N293        N  0.30219058  0.56249497  0.06347623    -0.25500
N294        N  0.28322871  0.56320530  0.04423067    -0.33400
C295        C  0.26724393  0.56687092  0.06671748     0.02800
C296        C  0.27661204  0.56853733  0.10178875     0.08800
C297        C  0.29875726  0.56567496  0.09900701    -0.04300
H298        H  0.25013368  0.56826818  0.05809874     0.09500
H299        H  0.31142360  0.56593754  0.12099865     0.10700
Cu300      Cu  0.28038621  0.55963998  0.98833675     0.44200
Cu301      Cu  0.33159992  0.55758758  0.03901995     0.42000
Cu302      Cu  0.32962413  0.55154854  0.43889975     0.43900
N303        N  0.28119845  0.55751249  0.43247619    -0.32900
N304        N  0.29914261  0.55481015  0.41382968    -0.27200
C305        C  0.29445101  0.55542292  0.37795377    -0.03300
C306        C  0.27251536  0.55854804  0.37437995     0.08900
C307        C  0.26467453  0.55984548  0.40927567     0.02700
H308        H  0.30639441  0.55417511  0.35626174     0.10400
H309        H  0.24853021  0.56284322  0.41731813     0.09500
N310        N  0.35839243  0.55071579  0.47244190    -0.34400
N311        N  0.35916765  0.55327091  0.00824692    -0.26500
C312        C  0.38122928  0.55373559  0.02137900    -0.01800
C313        C  0.39482742  0.55097878  0.99256846     0.06800
C314        C  0.37985975  0.54913055  0.46192811     0.04900
H315        H  0.38742051  0.55667158  0.04977315     0.10000
H316        H  0.38492237  0.54788294  0.43394216     0.08900
N317        N  0.43459811  0.69616846  0.42658803    -0.25500
N318        N  0.43255659  0.71433349  0.44573028    -0.33400
C319        C  0.42872208  0.73010119  0.42307594     0.02800
C320        C  0.42835200  0.72147696  0.38798342     0.08800
C321        C  0.43211819  0.69994462  0.39092447    -0.04300
H322        H  0.42651603  0.74670024  0.43159503     0.09500
H323        H  0.43311015  0.68804513  0.36893379     0.10700
Cu324      Cu  0.43526038  0.71717015  0.50163814     0.44200
Cu325      Cu  0.44085462  0.66768525  0.45124456     0.42000
Cu326      Cu  0.45005552  0.67342623  0.05201925     0.43900
N327        N  0.43931029  0.71840175  0.05793495    -0.32900
N328        N  0.44378599  0.70184308  0.07685600    -0.27200
C329        C  0.44232782  0.70611634  0.11265362    -0.03300
C330        C  0.43673884  0.72631564  0.11587213     0.08900
C331        C  0.43494246  0.73361151  0.08086275     0.02700
H332        H  0.44470703  0.69506594  0.13451340     0.10400
H333        H  0.43035479  0.74854535  0.07255782     0.09500
N334        N  0.45112090  0.64434911  0.01963194    -0.34400
N335        N  0.44699337  0.64180701  0.48318916    -0.26500
C336        C  0.44645101  0.61936362  0.47142251    -0.01800
C337        C  0.45066007  0.60738044  0.50096414     0.06800
C338        C  0.45337499  0.62356507  0.03129858     0.04900
H339        H  0.44246320  0.61180242  0.44355021     0.10000
H340        H  0.45553140  0.61971137  0.05951884     0.08900
N341        N  0.45232642  0.40999974  0.42363232    -0.25500
N342        N  0.45801032  0.39433638  0.44247494    -0.33400
C343        C  0.46249339  0.37925073  0.41947742     0.02800
C344        C  0.45951744  0.38571841  0.38451909     0.08800
C345        C  0.45309893  0.40527327  0.38782889    -0.04300
H346        H  0.46785621  0.36489998  0.42768418     0.09500
H347        H  0.44961833  0.41553508  0.36601543     0.10700
Cu348      Cu  0.46053542  0.39450547  0.49837903     0.44200
Cu349      Cu  0.44522169  0.43775866  0.44848538     0.42000
Cu350      Cu  0.45360619  0.44312589  0.04796437     0.43900
N351        N  0.46193839  0.39651768  0.05397174    -0.32900
N352        N  0.45982336  0.41470673  0.07293178    -0.27200
C353        C  0.46217602  0.41098109  0.10865605    -0.03300
C354        C  0.46593723  0.38945553  0.11182767     0.08900
C355        C  0.46570183  0.38079004  0.07680454     0.02700
H356        H  0.46108878  0.42290078  0.13053166     0.10400
H357        H  0.46794168  0.36418172  0.06845355     0.09500
N358        N  0.44747142  0.46894969  0.01588434    -0.34400
N359        N  0.44342987  0.46641943  0.48068388    -0.26500
C360        C  0.44088311  0.48696093  0.46882294    -0.01800
C361        C  0.44336433  0.50308775  0.49845277     0.06800
C362        C  0.44771088  0.49121981  0.02762523     0.04900
H363        H  0.43887725  0.49079150  0.44053499     0.10000
H364        H  0.45141686  0.49864801  0.05554365     0.08900
N365        N  0.59423383  0.55472326  0.08636581    -0.25500
N366        N  0.61235228  0.55223323  0.06779079    -0.33400
C367        C  0.62865230  0.54962022  0.09105141     0.02800
C368        C  0.62049246  0.55051823  0.12591270     0.08800
C369        C  0.59859798  0.55369801  0.12225747    -0.04300
H370        H  0.64490180  0.54675910  0.08306139     0.09500
H371        H  0.58649377  0.55475311  0.14389829     0.10700
Cu372      Cu  0.61388076  0.55090007  0.01184700     0.44200
Cu373      Cu  0.56400488  0.55835098  0.06120695     0.42000
Cu374      Cu  0.56232578  0.55239489  0.46095018     0.43900
N375        N  0.61110791  0.54737209  0.45589026    -0.32900
N376        N  0.59194634  0.54775000  0.43663497    -0.27200
C377        C  0.59527766  0.54436871  0.40114670    -0.03300
C378        C  0.61756784  0.54172866  0.39839475     0.08900
C379        C  0.62713011  0.54373045  0.43344166     0.02700
H380        H  0.58239916  0.54375466  0.37917172     0.10400
H381        H  0.64433452  0.54248616  0.44208015     0.09500
N382        N  0.53471660  0.55679908  0.49144000    -0.34400
N383        N  0.53553341  0.55960597  0.02754789    -0.26500
C384        C  0.51404704  0.56121100  0.03791154    -0.01800
C385        C  0.49935936  0.55960350  0.00705740     0.06800
C386        C  0.51281300  0.55653747  0.47814336     0.04900
H387        H  0.50876591  0.56222966  0.06586978     0.10000
H388        H  0.50673621  0.55367852  0.44971017     0.08900
C389        C  0.42183195  0.55358876  0.49449114     0.04000
C390        C  0.44843464  0.58049343  0.50122075     0.04000
C391        C  0.47337294  0.58189501  0.50656823    -0.16500
C392        C  0.47220176  0.55687484  0.50480813     0.04000
C393        C  0.44560096  0.52997549  0.49806251     0.04000
C394        C  0.42066662  0.52857330  0.49269659    -0.16500
H395        H  0.40014340  0.50784341  0.48824960     0.06100
H396        H  0.49389318  0.60262019  0.51104911     0.06100
C397        C  0.42517428  0.73329672  0.35550784    -0.11500
C398        C  0.42245604  0.74484510  0.33017711    -0.13100
C399        C  0.42818528  0.74793019  0.17320095    -0.11500
C400        C  0.43243231  0.73719127  0.14836791    -0.13100
C401        C  0.63190591  0.54714376  0.15862510    -0.11500
C402        C  0.64298162  0.54335229  0.18350447    -0.13100
C403        C  0.64001104  0.53460809  0.34058839    -0.11500
C404        C  0.62885776  0.53766589  0.36608915    -0.13100
C405        C  0.46331558  0.37456229  0.35192799    -0.11500
C406        C  0.46718452  0.36364396  0.32695642    -0.13100
C407        C  0.47161610  0.36608052  0.16981238    -0.11500
C408        C  0.46897353  0.37765042  0.14443362    -0.13100
C409        C  0.72210162  0.50956119  0.33573557    -0.11500
C410        C  0.73250204  0.50502108  0.36072418    -0.13100
C411        C  0.73740659  0.51716726  0.15147890    -0.11500
C412        C  0.72583670  0.51931303  0.17728208    -0.13100
C413        C  0.08793144  0.80436622  0.18435833    -0.11500
C414        C  0.07341888  0.78880534  0.15945358    -0.13100
C415        C  0.08775112  0.80164490  0.34271008    -0.11500
C416        C  0.07474557  0.78635147  0.36846008    -0.13100
C417        C  0.26512465  0.57228766  0.13415179    -0.11500
C418        C  0.25375619  0.57506586  0.15964774    -0.13100
C419        C  0.26093672  0.56172299  0.34168307    -0.11500
C420        C  0.24984203  0.56544899  0.31676216    -0.13100
C421        C  0.16661916  0.58885689  0.32257610    -0.11500
C422        C  0.15514483  0.59107060  0.34843455    -0.13100
C423        C  0.17123328  0.59942733  0.16397461    -0.11500
C424        C  0.16098570  0.60410379  0.13893501    -0.13100
C425        C  0.49834903  0.27210966  0.14448956    -0.11500
C426        C  0.49531341  0.28328521  0.16995462    -0.13100
C427        C  0.49505093  0.26905745  0.35380835    -0.11500
C428        C  0.49175948  0.28042618  0.32873384    -0.13100
C429        C  0.21035038  0.92248863  0.37254045    -0.11500
C430        C  0.19532649  0.90966219  0.34650876    -0.13100
C431        C  0.21336200  0.92952482  0.16300356    -0.11500
C432        C  0.19771674  0.91471146  0.18771109    -0.13100
C433        C  0.40244402  0.83034753  0.17099058    -0.11500
C434        C  0.39906096  0.84159127  0.14585887    -0.13100
C435        C  0.39418506  0.83769193  0.35512222    -0.11500
C436        C  0.39754887  0.82674857  0.32966765    -0.13100
C437        C  0.81678837  0.32361393  0.13201447    -0.11500
C438        C  0.80370523  0.30828390  0.15771076    -0.13100
C439        C  0.80326311  0.30508950  0.31620366    -0.11500
C440        C  0.81771560  0.32062639  0.34117321    -0.13100
C441        C  0.69382341  0.19451531  0.31223127    -0.11500
C442        C  0.67821752  0.17960658  0.33691077    -0.13100
C443        C  0.69637097  0.20005511  0.15341183    -0.11500
C444        C  0.68139293  0.18723112  0.12733676    -0.13100
O445        O  0.78808234  0.26961352  0.69720070    -0.71200
O446        O  0.73275196  0.21263333  0.77231404    -0.72200
O447        O  0.73372524  0.21501008  0.69485063    -0.60800
O448        O  0.78727720  0.26747218  0.77458187    -0.69200
O449        O  0.76528704  0.28874752  0.77596207    -0.68700
O450        O  0.71196418  0.23651102  0.69661083    -0.60000
O451        O  0.71095608  0.23410321  0.77373796    -0.72500
O452        O  0.76609650  0.29089490  0.69889558    -0.71300
Cu453      Cu  0.76124238  0.24040556  0.73473518     1.04600
Cu454      Cu  0.73781061  0.26330134  0.73640001     1.04300
C455        C  0.78549037  0.28897499  0.68607379     0.95000
C456        C  0.71322587  0.21451650  0.78477622     0.94200
C457        C  0.71465827  0.21782647  0.68305062     0.86300
C458        C  0.78464268  0.28635185  0.78764635     0.92600
N459        N  0.38869806  0.85958402  0.55668565    -0.25500
N460        N  0.39555794  0.88265138  0.57500898    -0.33400
C461        C  0.39983389  0.87949254  0.61022719     0.02800
C462        C  0.39534858  0.85320242  0.61389333     0.08800
C463        C  0.38836736  0.84117604  0.57957880    -0.04300
H464        H  0.40660428  0.89551032  0.63123035     0.09500
H465        H  0.38444177  0.82105174  0.57150056     0.10700
Cu466      Cu  0.40111430  0.91815218  0.55005585     0.46000
Cu467      Cu  0.38438580  0.85581294  0.00058347     0.42000
Cu468      Cu  0.40539737  0.91903056  0.95057927     0.43900
N469        N  0.40890839  0.95167153  0.51729566    -0.32900
N470        N  0.41169264  0.95248501  0.98132156    -0.27200
C471        C  0.41972077  0.97820862  0.96875737    -0.03300
C472        C  0.42141932  0.99408290  0.49805302     0.08900
C473        C  0.41493093  0.97699241  0.52839656     0.02700
H474        H  0.42450037  0.98491930  0.94055817     0.10400
H475        H  0.41600465  0.98308868  0.55656710     0.09500
N476        N  0.39683499  0.88231800  0.92604867    -0.34400
N477        N  0.38852981  0.85885399  0.94452611    -0.26500
C478        C  0.38607055  0.83933025  0.92155000    -0.01800
C479        C  0.39308517  0.85111910  0.88707492     0.06800
C480        C  0.39988894  0.87837207  0.89072381     0.04900
H481        H  0.38074199  0.81861427  0.92963562     0.10000
H482        H  0.40743146  0.89447892  0.86962788     0.08900
N483        N  0.24039277  0.94814606  0.96194960    -0.25500
N484        N  0.26282234  0.95255904  0.94463266    -0.33400
C485        C  0.25585310  0.94522394  0.90942776     0.02800
C486        C  0.22776160  0.93583289  0.90461917     0.08800
C487        C  0.21847719  0.93777688  0.93833051    -0.04300
H488        H  0.26986021  0.94577850  0.88922516     0.09500
H489        H  0.19710634  0.93110408  0.94552108     0.10700
Cu490      Cu  0.30124590  0.96716458  0.97033624     0.44200
Cu491      Cu  0.23991547  0.95373868  0.01743685     0.42000
Cu492      Cu  0.30601583  0.98191358  0.56734781     0.43900
N493        N  0.33896753  0.98702840  0.00024852    -0.32900
N494        N  0.34112007  0.99388565  0.53505095    -0.27200
C495        C  0.36919055  0.01055353  0.54442191    -0.03300
C496        C  0.38525130  0.01370226  0.01431129     0.08900
C497        C  0.36541040  0.99858372  0.98679024     0.02700
H498        H  0.37742599  0.02070191  0.57072964     0.10400
H499        H  0.37004015  0.99796011  0.95838532     0.09500
N500        N  0.26646108  0.96478297  0.59197823    -0.34400
N501        N  0.24254968  0.95494796  0.57352891    -0.26500
C502        C  0.22019813  0.94256229  0.59675901    -0.01800
C503        C  0.23054102  0.94476632  0.63138090     0.06800
C504        C  0.25987466  0.95882427  0.62755396     0.04900
H505        H  0.19785743  0.93103465  0.58867858     0.10000
H506        H  0.27497472  0.96275362  0.64860190     0.08900
N507        N  0.50576115  0.25138479  0.55503744    -0.25500
N508        N  0.49713970  0.22788598  0.57366297    -0.33400
C509        C  0.49451271  0.23217286  0.60901259     0.02800
C510        C  0.50192997  0.25968131  0.61250902     0.08800
C511        C  0.50885195  0.27126082  0.57792854    -0.04300
H512        H  0.48683212  0.21613664  0.63023464     0.09500
H513        H  0.51453713  0.29209223  0.56972087     0.10700
Cu514      Cu  0.48759378  0.19071006  0.54928056     0.44200
Cu515      Cu  0.50935601  0.25430063  0.99905984     0.42000
Cu516      Cu  0.49171893  0.19149631  0.94979300     0.43900
N517        N  0.48047791  0.15692960  0.51839900    -0.32900
N518        N  0.48301912  0.15763824  0.98262927    -0.27200
C519        C  0.47712014  0.13235680  0.97158939    -0.03300
C520        C  0.47007711  0.11489003  0.50170398     0.08900
C521        C  0.47241079  0.13118955  0.53096818     0.02700
H522        H  0.47659324  0.12645147  0.94345836     0.10400
H523        H  0.46798481  0.12462071  0.55923625     0.09500
N524        N  0.49843136  0.22748738  0.92466281    -0.34400
N525        N  0.50540625  0.25058525  0.94300886    -0.26500
C526        C  0.50649375  0.26935763  0.91998922    -0.01800
C527        C  0.49988268  0.25753969  0.88556154     0.06800
C528        C  0.49482776  0.23098807  0.88929980     0.04900
H529        H  0.51058329  0.28955831  0.92805020     0.10000
H530        H  0.48804417  0.21500358  0.86824576     0.08900
N531        N  0.64908084  0.15449816  0.92634686    -0.25500
N532        N  0.62515868  0.14469078  0.90793388    -0.33400
C533        C  0.63172199  0.15070095  0.87236474     0.02800
C534        C  0.66104812  0.16476287  0.86849685     0.08800
C535        C  0.67141526  0.16691448  0.90308767    -0.04300
H536        H  0.61661282  0.14682026  0.85135921     0.09500
H537        H  0.69376315  0.17844954  0.91113779     0.10700
Cu538      Cu  0.58559927  0.12754463  0.93252553     0.44200
Cu539      Cu  0.65187848  0.15573384  0.98250082     0.42000
Cu540      Cu  0.59043486  0.14201677  0.52944769     0.43900
N541        N  0.55046666  0.11544936  0.96481522    -0.32900
N542        N  0.55265433  0.12201497  0.49960501    -0.27200
C543        C  0.52621799  0.11048944  0.51307035    -0.03300
C544        C  0.50641430  0.09568487  0.98561600     0.08900
C545        C  0.52240771  0.09887526  0.95538813     0.02700
H546        H  0.52160145  0.11115131  0.54146952     0.10400
H547        H  0.51419369  0.08888786  0.92899770     0.09500
N548        N  0.62898556  0.15711627  0.55519826    -0.34400
N549        N  0.65149959  0.16166752  0.53794627    -0.26500
C550        C  0.67346522  0.17233184  0.56156763    -0.01800
C551        C  0.66412769  0.17433010  0.59521517     0.06800
C552        C  0.63594788  0.16465516  0.59036049     0.04900
H553        H  0.69488207  0.17911393  0.55442872     0.10000
H554        H  0.62185219  0.16399847  0.61051087     0.08900
C555        C  0.41663706  0.03428207  0.00927751     0.04000
C556        C  0.43329747  0.02504146  0.99779120     0.04000
C557        C  0.46227558  0.04552981  0.98826108    -0.16500
C558        C  0.47502216  0.07511227  0.99061786     0.04000
C559        C  0.45835604  0.08435319  0.00208350     0.04000
C560        C  0.42938203  0.06386476  0.01163206    -0.16500
H561        H  0.41634373  0.07097365  0.01939788     0.06100
H562        H  0.47531393  0.03842021  0.98049837     0.06100
O563        O  0.24784538  0.59793682  0.78015183    -0.71200
O564        O  0.20866698  0.61487342  0.70581222    -0.72200
O565        O  0.20643218  0.60965934  0.78295383    -0.60800
O566        O  0.24993585  0.60292099  0.70314359    -0.69200
O567        O  0.21453310  0.55606192  0.69864978    -0.68700
O568        O  0.17111042  0.56278392  0.77836700    -0.60000
O569        O  0.17327756  0.56802242  0.70116701    -0.72500
O570        O  0.21256884  0.55104006  0.77566891    -0.71300
Cu571      Cu  0.22944415  0.60799966  0.74319058     1.04600
Cu572      Cu  0.19160535  0.55782232  0.73829478     1.04300
C573        C  0.23640045  0.57190340  0.78952050     0.95000
C574        C  0.18494985  0.59410003  0.69168832     0.94200
C575        C  0.18205759  0.58726000  0.79324788     0.86300
C576        C  0.23899207  0.57836749  0.68845864     0.92600
O577        O  0.18071705  0.87573535  0.72640960    -0.71200
O578        O  0.12582040  0.81912724  0.80154759    -0.72200
O579        O  0.12645947  0.82100645  0.72450888    -0.60800
O580        O  0.17985250  0.87360120  0.80352872    -0.69200
O581        O  0.15796727  0.89498194  0.80516919    -0.68700
O582        O  0.10435142  0.84216701  0.72578522    -0.60000
O583        O  0.10370058  0.84027529  0.80314497    -0.72500
O584        O  0.15881252  0.89709741  0.72769383    -0.71300
Cu585      Cu  0.15398326  0.84663677  0.76390351     1.04600
Cu586      Cu  0.13042013  0.86940433  0.76544338     1.04300
C587        C  0.17836645  0.89524287  0.71525725     0.95000
C588        C  0.10639377  0.82099918  0.81435855     0.94200
C589        C  0.10701724  0.82327859  0.71284870     0.86300
C590        C  0.17710722  0.89227987  0.81697854     0.92600
N591        N  0.13770908  0.60263119  0.93756780    -0.25500
N592        N  0.11354834  0.59312271  0.92000721    -0.33400
C593        C  0.11624914  0.58803535  0.88502791     0.02800
C594        C  0.14340961  0.59471226  0.88069079     0.08800
C595        C  0.15644756  0.60384019  0.91436151    -0.04300
H596        H  0.09959366  0.57978251  0.86454098     0.09500
H597        H  0.17773834  0.61034723  0.92167985     0.10700
Cu598      Cu  0.07822463  0.58714416  0.94525223     0.44200
Cu599      Cu  0.14332699  0.61140629  0.49271458     0.42000
Cu600      Cu  0.08461523  0.60199666  0.54328776     0.43900
N601        N  0.04706825  0.58510052  0.97632678    -0.32900
N602        N  0.04988912  0.59174861  0.51145660    -0.27200
C603        C  0.02571696  0.58801070  0.52301531    -0.03300
C604        C  0.00673192  0.57815875  0.99389994     0.08900
C605        C  0.02091168  0.57650218  0.96486697     0.02700
H606        H  0.02155752  0.59057641  0.55092688     0.10400
H607        H  0.01256993  0.56890428  0.93765926     0.09500
N608        N  0.12040802  0.60819707  0.56778523    -0.34400
N609        N  0.14209604  0.61219207  0.54895829    -0.26500
C610        C  0.16069674  0.61299048  0.57197753    -0.01800
C611        C  0.15019669  0.60930081  0.60686227     0.06800
C612        C  0.12461744  0.60623950  0.60341989     0.04900
H613        H  0.17954346  0.61442121  0.56368317     0.10000
H614        H  0.10948627  0.60146117  0.62487433     0.08900
N615        N  0.04776276  0.75843928  0.57069884    -0.25500
N616        N  0.03820783  0.73483517  0.58969907    -0.33400
C617        C  0.04453566  0.74192936  0.62508727     0.02800
C618        C  0.05857165  0.77129306  0.62822077     0.08800
C619        C  0.06037220  0.78113692  0.59339374    -0.04300
H620        H  0.04083187  0.72714102  0.64646490     0.09500
H621        H  0.07167981  0.80334508  0.58481815     0.10700
Cu622      Cu  0.02103561  0.69505872  0.56598720     0.44200
Cu623      Cu  0.04791496  0.75999801  0.51449783     0.42000
Cu624      Cu  0.03640825  0.69868474  0.96930253     0.43900
N625        N  0.00932251  0.65968033  0.53468445    -0.32900
N626        N  0.01672733  0.66148583  0.00010403    -0.27200
C627        C  0.00499565  0.63488563  0.98714815    -0.03300
C628        C  0.98920518  0.61537117  0.51474177     0.08900
C629        C  0.99221770  0.63171930  0.54444621     0.02700
H630        H  0.00574629  0.62997738  0.95890596     0.10400
H631        H  0.98162506  0.62382396  0.57058295     0.09500
N632        N  0.04844723  0.73579998  0.94227228    -0.34400
N633        N  0.05200388  0.75808582  0.95885557    -0.26500
C634        C  0.06074607  0.77914218  0.93439557    -0.01800
C635        C  0.06250260  0.76943537  0.90091484     0.06800
C636        C  0.05471546  0.74199807  0.90672096     0.04900
H637        H  0.06668960  0.80036384  0.94088074     0.10000
H638        H  0.05472930  0.72804173  0.88699130     0.08900
N639        N  0.84027000  0.35187837  0.54171669    -0.25500
N640        N  0.84414285  0.37430120  0.55833594    -0.33400
C641        C  0.83785147  0.36812859  0.59388785     0.02800
C642        C  0.82972068  0.34056233  0.59965775     0.08800
C643        C  0.83130228  0.33075872  0.56615690    -0.04300
H644        H  0.83804729  0.38219640  0.61363835     0.09500
H645        H  0.82506658  0.30943396  0.55964055     0.10700
Cu646      Cu  0.85661087  0.41155001  0.53131991     0.44200
Cu647      Cu  0.84423873  0.34996626  0.48608593     0.42000
Cu648      Cu  0.87144620  0.41477846  0.93434284     0.43900
N649        N  0.87668390  0.44872321  0.50042407    -0.32900
N650        N  0.88386437  0.45038183  0.96568095    -0.27200
C651        C  0.90129681  0.47832945  0.95589009    -0.03300
C652        C  0.90461017  0.49485144  0.48572796     0.08900
C653        C  0.88878132  0.47539888  0.51335402     0.02700
H654        H  0.91181888  0.48610116  0.92969631     0.10400
H655        H  0.88816855  0.48040327  0.54159489     0.09500
N656        N  0.85379161  0.37483432  0.91077905    -0.34400
N657        N  0.84420258  0.35127199  0.92989426    -0.26500
C658        C  0.83136951  0.32847712  0.90733110    -0.01800
C659        C  0.83305712  0.33821238  0.87246224     0.06800
C660        C  0.84726195  0.36761597  0.87544606     0.04900
H661        H  0.82003184  0.30629302  0.91602736     0.10000
H662        H  0.85100324  0.38236958  0.85399689     0.08900
N663        N  0.75200510  0.49822805  0.95069393    -0.25500
N664        N  0.77362448  0.50206471  0.93188633    -0.33400
C665        C  0.76940679  0.50396439  0.89623121     0.02800
C666        C  0.74388661  0.50102780  0.89277999     0.08800
C667        C  0.73344404  0.49748183  0.92766529    -0.04300
H668        H  0.78446832  0.50857023  0.87476268     0.09500
H669        H  0.71462633  0.49611015  0.93594322     0.10700
Cu670      Cu  0.80925448  0.50803745  0.95656555     0.44200
Cu671      Cu  0.75073388  0.49894706  0.50698557     0.42000
Cu672      Cu  0.81561779  0.52329519  0.55468346     0.43900
N673        N  0.84388970  0.51831096  0.98862201    -0.32900
N674        N  0.84672427  0.52518428  0.52364747    -0.27200
C675        C  0.87295497  0.53400398  0.53509897    -0.03300
C676        C  0.88702594  0.53199283  0.00612452     0.08900
C677        C  0.86811916  0.52215712  0.97710139     0.02700
H678        H  0.88138139  0.54191384  0.56219899     0.10400
H679        H  0.87232895  0.51963537  0.94919561     0.09500
N680        N  0.78013535  0.51701183  0.57992900    -0.34400
N681        N  0.75600973  0.50745008  0.56224978    -0.26500
C682        C  0.73707346  0.50592335  0.58540588    -0.01800
C683        C  0.74993847  0.51489614  0.61918589     0.06800
C684        C  0.77721348  0.52182118  0.61495378     0.04900
H685        H  0.71576300  0.49930789  0.57798257     0.10000
H686        H  0.79379252  0.53005604  0.63554470     0.08900
C687        C  0.96805120  0.58406040  0.50979524     0.04000
C688        C  0.97629768  0.56718350  0.49566052     0.04000
C689        C  0.95508351  0.53847304  0.48576320    -0.16500
C690        C  0.92578765  0.52617332  0.49053011     0.04000
C691        C  0.91754367  0.54306007  0.50463016     0.04000
C692        C  0.93875299  0.57176063  0.51453717    -0.16500
H693        H  0.93237964  0.58503940  0.52416066     0.06100
H694        H  0.96144986  0.52518771  0.47614375     0.06100
O695        O  0.46610709  0.28599346  0.70960009    -0.71200
O696        O  0.45198082  0.32584358  0.78635487    -0.72200
O697        O  0.45418112  0.32728373  0.70920646    -0.60800
O698        O  0.46410389  0.28456053  0.78701397    -0.69200
O699        O  0.51106015  0.32001396  0.78894684    -0.68700
O700        O  0.50116652  0.36266637  0.71126484    -0.60000
O701        O  0.49895354  0.36129776  0.78840796    -0.72500
O702        O  0.51310548  0.32136972  0.71152019    -0.71300
Cu703      Cu  0.45743917  0.30465244  0.74799307     1.04600
Cu704      Cu  0.50773140  0.34256806  0.75013612     1.04300
C705        C  0.49174343  0.29751805  0.69836705     0.95000
C706        C  0.47322760  0.34987744  0.79922527     0.94200
C707        C  0.47613953  0.35165928  0.69811082     0.86300
C708        C  0.48916959  0.29565698  0.80017218     0.92600
O709        O  0.68107464  0.55894038  0.72421320    -0.71200
O710        O  0.72051711  0.54198397  0.79847563    -0.72200
O711        O  0.72228086  0.54686292  0.72127928    -0.60800
O712        O  0.67952175  0.55428033  0.80123875    -0.69200
O713        O  0.64392637  0.50745103  0.79714752    -0.68700
O714        O  0.68678446  0.50001461  0.71706222    -0.60000
O715        O  0.68494601  0.49515839  0.79424099    -0.72500
O716        O  0.64560970  0.51207155  0.72012387    -0.71300
Cu717      Cu  0.70211928  0.55216801  0.76145535     1.04600
Cu718      Cu  0.66408127  0.50202026  0.75698289     1.04300
C719        C  0.65712169  0.53808749  0.71060162     0.95000
C720        C  0.70879452  0.51592886  0.80810699     0.94200
C721        C  0.71116552  0.52230008  0.70656207     0.86300
C722        C  0.65506642  0.53209954  0.81166268     0.92600
O723        O  0.39787152  0.75052495  0.71153099    -0.71200
O724        O  0.38318699  0.79024854  0.78801852    -0.72200
O725        O  0.38524846  0.79139518  0.71060048    -0.60800
O726        O  0.39571219  0.74942935  0.78870738    -0.69200
O727        O  0.44260792  0.78512584  0.79064703    -0.68700
O728        O  0.43211637  0.82715249  0.71245329    -0.60000
O729        O  0.43009029  0.82594889  0.78989359    -0.72500
O730        O  0.44476210  0.78626029  0.71343321    -0.71300
Cu731      Cu  0.38885206  0.76915857  0.74961109     1.04600
Cu732      Cu  0.43904885  0.80740123  0.75165086     1.04300
C733        C  0.42361586  0.76211049  0.70066478     0.95000
C734        C  0.40440724  0.81420644  0.80112267     0.94200
C735        C  0.40700724  0.81580015  0.69927945     0.86300
C736        C  0.42078673  0.76072943  0.80190605     0.92600
N737        N  0.30238597  0.56288772  0.56351077    -0.25500
N738        N  0.28333254  0.56345344  0.54427151    -0.33400
C739        C  0.26739531  0.56719747  0.56673968     0.02800
C740        C  0.27689266  0.56906745  0.60178935     0.08800
C741        C  0.29906118  0.56624123  0.59901670    -0.04300
H742        H  0.25022506  0.56850206  0.55812367     0.09500
H743        H  0.31181192  0.56663778  0.62099816     0.10700
Cu744      Cu  0.28029612  0.55958187  0.48841003     0.44200
Cu745      Cu  0.33175812  0.55791400  0.53909610     0.42000
Cu746      Cu  0.32971482  0.55162019  0.93877224     0.43900
N747        N  0.28143779  0.55782421  0.93238910    -0.32900
N748        N  0.29936591  0.55511006  0.91372044    -0.27200
C749        C  0.29475822  0.55587649  0.87784914    -0.03300
C750        C  0.27289848  0.55911885  0.87430293     0.08900
C751        C  0.26501280  0.56032063  0.90921085     0.02700
H752        H  0.30669811  0.55463854  0.85614289     0.10400
H753        H  0.24888983  0.56334182  0.91728074     0.09500
N754        N  0.35841164  0.55065627  0.97232521    -0.34400
N755        N  0.35923991  0.55346342  0.50834771    -0.26500
C756        C  0.38130816  0.55393153  0.52146182    -0.01800
C757        C  0.39480971  0.55104035  0.49265111     0.06800
C758        C  0.37993529  0.54915165  0.96182147     0.04900
H759        H  0.38756141  0.55694852  0.54983695     0.10000
H760        H  0.38508614  0.54803444  0.93383233     0.08900
N761        N  0.43630988  0.69737825  0.92707582    -0.25500
N762        N  0.43501172  0.71607651  0.94608834    -0.33400
C763        C  0.43152326  0.73204934  0.92334206     0.02800
C764        C  0.43061088  0.72300380  0.88832217     0.08800
C765        C  0.43368605  0.70100510  0.89140670    -0.04300
H766        H  0.42979866  0.74898780  0.93175763     0.09500
H767        H  0.43402323  0.68862561  0.86951354     0.10700
Cu768      Cu  0.43782219  0.71903509  0.00198010     0.44200
Cu769      Cu  0.44162817  0.66828541  0.95191709     0.42000
Cu770      Cu  0.44969879  0.67315883  0.55132451     0.43900
N771        N  0.43767877  0.71715403  0.55755111    -0.32900
N772        N  0.44305260  0.70122603  0.57633899    -0.27200
C773        C  0.44232135  0.70594489  0.61216324    -0.03300
C774        C  0.43625909  0.72577531  0.61554165     0.08900
C775        C  0.43343492  0.73239479  0.58059762     0.02700
H776        H  0.44558927  0.69549704  0.63394578     0.10400
H777        H  0.42834054  0.74696418  0.57243152     0.09500
N778        N  0.45101120  0.64426184  0.51892706    -0.34400
N779        N  0.44720571  0.64200673  0.98387539    -0.26500
C780        C  0.44653531  0.61950324  0.97204698    -0.01800
C781        C  0.45055634  0.60735413  0.00156296     0.06800
C782        C  0.45344679  0.62361386  0.53064339     0.04900
H783        H  0.44267972  0.61207209  0.94412161     0.10000
H784        H  0.45563391  0.61981885  0.55887809     0.08900
N785        N  0.45251675  0.41001088  0.92317528    -0.25500
N786        N  0.45759886  0.39391777  0.94211729    -0.33400
C787        C  0.46217299  0.37885754  0.91920134     0.02800
C788        C  0.45989303  0.38578700  0.88419036     0.08800
C789        C  0.45378396  0.40558851  0.88738616    -0.04300
H790        H  0.46717347  0.36424175  0.92750851     0.09500
H791        H  0.45087563  0.41624143  0.86551136     0.10700
Cu792      Cu  0.45943707  0.39360365  0.99806344     0.44200
Cu793      Cu  0.44559044  0.43797215  0.94788257     0.42000
Cu794      Cu  0.45370068  0.44327293  0.54855763     0.43900
N795        N  0.46307103  0.39738813  0.55428312    -0.32900
N796        N  0.46052833  0.41524580  0.57335609    -0.27200
C797        C  0.46286810  0.41144686  0.60905918    -0.03300
C798        C  0.46707176  0.39022389  0.61209013     0.08900
C799        C  0.46710299  0.38180883  0.57701577     0.02700
H800        H  0.46142658  0.42307671  0.63101453     0.10400
H801        H  0.46963777  0.36542003  0.56856417     0.09500
N802        N  0.44725220  0.46885336  0.51645273    -0.34400
N803        N  0.44379033  0.46665044  0.98009154    -0.26500
C804        C  0.44129288  0.48724666  0.96830132    -0.01800
C805        C  0.44366419  0.50326743  0.99800968     0.06800
C806        C  0.44752775  0.49116336  0.52810674     0.04900
H807        H  0.43935403  0.49116180  0.94002566     0.10000
H808        H  0.45138785  0.49873145  0.55596937     0.08900
N809        N  0.59424630  0.55484092  0.58625606    -0.25500
N810        N  0.61246099  0.55247806  0.56770961    -0.33400
C811        C  0.62884980  0.55001664  0.59099819     0.02800
C812        C  0.62064646  0.55088109  0.62584674     0.08800
C813        C  0.59863263  0.55388051  0.62215550    -0.04300
H814        H  0.64517575  0.54725827  0.58303658     0.09500
H815        H  0.58645599  0.55484423  0.64377670     0.10700
Cu816      Cu  0.61396069  0.55104962  0.51176998     0.44200
Cu817      Cu  0.56386986  0.55821507  0.56104921     0.42000
Cu818      Cu  0.56255204  0.55275882  0.96108299     0.43900
N819        N  0.61112988  0.54743850  0.95594904    -0.32900
N820        N  0.59208624  0.54801894  0.93670810    -0.27200
C821        C  0.59546444  0.54475398  0.90119454    -0.03300
C822        C  0.61766220  0.54197757  0.89841229     0.08900
C823        C  0.62712161  0.54377910  0.93346664     0.02700
H824        H  0.58268147  0.54431290  0.87922252     0.10400
H825        H  0.64423912  0.54239319  0.94208570     0.09500
N826        N  0.53493737  0.55712205  0.99162037    -0.34400
N827        N  0.53535143  0.55936018  0.52735854    -0.26500
C828        C  0.51390251  0.56102546  0.53770522    -0.01800
C829        C  0.49919983  0.55938283  0.50685201     0.06800
C830        C  0.51302535  0.55684805  0.97833541     0.04900
H831        H  0.50867252  0.56213725  0.56565571     0.10000
H832        H  0.50696483  0.55401922  0.94989807     0.08900
C833        C  0.42189775  0.55361210  0.99446562     0.04000
C834        C  0.44840658  0.58049877  0.00163871     0.04000
C835        C  0.47336178  0.58194451  0.00709265    -0.16500
C836        C  0.47230893  0.55699931  0.00499384     0.04000
C837        C  0.44580415  0.53011541  0.99781014     0.04000
C838        C  0.42084923  0.52866739  0.99234418    -0.16500
H839        H  0.40038962  0.50794373  0.98759190     0.06100
H840        H  0.49381922  0.60266312  0.01187646     0.06100
C841        C  0.42727694  0.73465752  0.85579272    -0.11500
C842        C  0.42439889  0.74602817  0.83038275    -0.13100
C843        C  0.42877931  0.74800872  0.67311999    -0.11500
C844        C  0.43260551  0.73703305  0.64816486    -0.13100
C845        C  0.63208642  0.54756719  0.65857713    -0.11500
C846        C  0.64317316  0.54380107  0.68346704    -0.13100
C847        C  0.64013633  0.53496144  0.84055424    -0.11500
C848        C  0.62896914  0.53797964  0.86607337    -0.13100
C849        C  0.46406984  0.37484049  0.85167990    -0.11500
C850        C  0.46814203  0.36401916  0.82678509    -0.13100
C851        C  0.47274735  0.36668703  0.66987826    -0.11500
C852        C  0.47010959  0.37834422  0.64461108    -0.13100
C853        C  0.72223393  0.50995646  0.83571431    -0.11500
C854        C  0.73262671  0.50540648  0.86070163    -0.13100
C855        C  0.73762643  0.51765382  0.65144936    -0.11500
C856        C  0.72605316  0.51979575  0.67725213    -0.13100
C857        C  0.08811987  0.80442972  0.68442930    -0.11500
C858        C  0.07361418  0.78886561  0.65952271    -0.13100
C859        C  0.08804912  0.80168909  0.84276846    -0.11500
C860        C  0.07505424  0.78637006  0.86850458    -0.13100
C861        C  0.26547658  0.57292767  0.63413434    -0.11500
C862        C  0.25414824  0.57575989  0.65962841    -0.13100
C863        C  0.26137357  0.56240301  0.84162839    -0.11500
C864        C  0.25029347  0.56617542  0.81673160    -0.13100
C865        C  0.16702564  0.58955805  0.82254405    -0.11500
C866        C  0.15551386  0.59173064  0.84838945    -0.13100
C867        C  0.17162697  0.60011383  0.66395522    -0.11500
C868        C  0.16137252  0.60477485  0.63890645    -0.13100
C869        C  0.49943864  0.27246198  0.64443728    -0.11500
C870        C  0.49644293  0.28371711  0.66984488    -0.13100
C871        C  0.49604865  0.26944236  0.85361867    -0.11500
C872        C  0.49279047  0.28080250  0.82850742    -0.13100
C873        C  0.21045764  0.92274173  0.87255046    -0.11500
C874        C  0.19543578  0.90990511  0.84652130    -0.13100
C875        C  0.21333527  0.92977340  0.66298232    -0.11500
C876        C  0.19771084  0.91496075  0.68770624    -0.13100
C877        C  0.40317996  0.83043059  0.67084804    -0.11500
C878        C  0.39965840  0.84158458  0.64573399    -0.13100
C879        C  0.39611085  0.83876659  0.85509871    -0.11500
C880        C  0.39947143  0.82782774  0.82963827    -0.13100
C881        C  0.81701661  0.32363958  0.63204510    -0.11500
C882        C  0.80391580  0.30832032  0.65773992    -0.13100
C883        C  0.80347412  0.30505699  0.81623207    -0.11500
C884        C  0.81794701  0.32057103  0.84120618    -0.13100
C885        C  0.69383752  0.19473987  0.81224112    -0.11500
C886        C  0.67822555  0.17985190  0.83692450    -0.13100
C887        C  0.69635557  0.20031754  0.65340460    -0.11500
C888        C  0.68137963  0.18750882  0.62732110    -0.13100
loop_ 
_geom_bond_atom_site_label_1 
_geom_bond_atom_site_label_2 
_geom_bond_distance 
_geom_bond_site_symmetry_2 
_ccdc_geom_bond_type 
O1           Cu9   2.009       .  S
O1           C11   1.276       .  A
O2           Cu9   2.011       .  S
O2           C12   1.276       .  A
O3           Cu9   2.011       .  S
O3           C13   1.277       .  A
O4           Cu9   2.011       .  S
O4           C14   1.277       .  A
O5          Cu10   2.003       .  S
O5           C14   1.276       .  A
O6          Cu10   2.001       .  S
O6           C13   1.275       .  A
O7          Cu10   2.004       .  S
O7           C12   1.276       .  A
O8          Cu10   2.001       .  S
O8           C11   1.275       .  A
Cu9         Cu10   2.381       .  S
C11         C438   1.431       .  S
C12         C441   1.433       .  S
C13         C443   1.432       .  S
C14         C439   1.433       .  S
N15          N16   1.323       .  A
N15          C19   1.344       .  A
N15        Cu467   2.067       .  S
N16          C17   1.348       .  A
N16         Cu22   2.084       .  S
C17          C18   1.383       .  A
C17          H20   1.082       .  S
C18         C434   1.439       .  S
C18          C19   1.377       .  A
C19          H21   1.082       .  S
Cu22         N25   2.084       .  S
Cu23         N33   2.067       .  S
Cu23        N459   2.067       .  S
Cu24         N26   2.071       .  S
Cu24         N32   2.071       .  S
N25         N470   1.324   1_554  A
N25          C29   1.346       .  A
N26         N469   1.324       .  A
N26          C27   1.345       .  A
C27         C472   1.380       .  A
C27          H30   1.082       .  S
C28          C29   1.383   1_556  A
C28         C471   1.379       .  A
C28         C556   1.473   1_565  S
C29          H31   1.082       .  S
N32          N33   1.322       .  A
N32          C36   1.346       .  A
N33          C34   1.344       .  A
C34          C35   1.378       .  A
C34          H37   1.082       .  S
C35         C435   1.436       .  S
C35          C36   1.380       .  A
C36          H38   1.082       .  S
N39          N40   1.322       .  A
N39          C43   1.344       .  A
N39         Cu47   2.065       .  S
N40          C41   1.345       .  A
N40         Cu46   2.070       .  S
C41          C42   1.379       .  A
C41          H44   1.082       .  S
C42         C429   1.434       .  S
C42          C43   1.379       .  A
C43          H45   1.082       .  S
Cu46         N49   2.070       .  S
Cu47        N501   2.065       .  S
Cu48         N50   2.077       .  S
Cu48         N56   2.077       .  S
N49         N494   1.323       .  A
N49          C53   1.343       .  A
N50         N493   1.323       .  A
N50          C51   1.346   1_565  A
C51         C496   1.383       .  A
C51          H54   1.082       .  S
C52          C53   1.380   1_545  A
C52         C495   1.383       .  A
C52         C111   1.472       .  S
C53          H55   1.082       .  S
N56          N57   1.323       .  A
N56          C60   1.346       .  A
N57          C58   1.343       .  A
N57        Cu491   2.065       .  S
C58          C59   1.377       .  A
C58          H61   1.082       .  S
C59         C431   1.435       .  S
C59          C60   1.381       .  A
C60          H62   1.082       .  S
N63          N64   1.322       .  A
N63          C67   1.344       .  A
N63        Cu515   2.067   1_554  S
N64          C65   1.346       .  A
N64         Cu70   2.070       .  S
C65          C66   1.380       .  A
C65          H68   1.082       .  S
C66         C425   1.435       .  S
C66          C67   1.378       .  A
C67          H69   1.082       .  S
Cu70         N73   2.070       .  S
Cu71         N81   2.067       .  S
Cu71        N507   2.067       .  S
Cu72         N74   2.085       .  S
Cu72         N80   2.085       .  S
N73         N518   1.324   1_554  A
N73          C77   1.345       .  A
N74         N517   1.324       .  A
N74          C75   1.346       .  A
C75         C520   1.383       .  A
C75          H78   1.082       .  S
C76          C77   1.379       .  A
C76         C519   1.383   1_554  A
C76         C559   1.473       .  S
C77          H79   1.082       .  S
N80          N81   1.323       .  A
N80          C84   1.348       .  A
N81          C82   1.344       .  A
C82          C83   1.378       .  A
C82          H85   1.082       .  S
C83         C427   1.440       .  S
C83          C84   1.383       .  A
C84          H86   1.082       .  S
N87          N88   1.323       .  A
N87          C91   1.343       .  A
N87         Cu95   2.066       .  S
N88          C89   1.346       .  A
N88         Cu94   2.077       .  S
C89          C90   1.381       .  A
C89          H92   1.082       .  S
C90         C442   1.435       .  S
C90          C91   1.377       .  A
C91          H93   1.082       .  S
Cu94         N97   2.077       .  S
Cu95        N549   2.065       .  S
Cu96         N98   2.071   1_554  S
Cu96        N104   2.071       .  S
N97         N542   1.323       .  A
N97         C101   1.346       .  A
N98         N541   1.323       .  A
N98          C99   1.343   1_556  A
C99         C544   1.380   1_554  A
C99         H102   1.082       .  S
C100        C101   1.383       .  A
C100        C543   1.380       .  A
C100        C114   1.472       .  S
C101        H103   1.082       .  S
N104        N105   1.322       .  A
N104        C108   1.345       .  A
N105        C106   1.345       .  A
N105       Cu539   2.065   1_554  S
C106        C107   1.379       .  A
C106        H109   1.082       .  S
C107        C444   1.434       .  S
C107        C108   1.380       .  A
C108        H110   1.082       .  S
C111        C112   1.409       .  A
C111        C116   1.402       .  A
C112        C113   1.402       .  A
C112        C472   1.473   1_545  S
C113        C114   1.402       .  A
C113        H118   1.085       .  S
C114        C115   1.409       .  A
C115        C116   1.402       .  A
C115        C520   1.473       .  S
C116        H117   1.085       .  S
O119       Cu127   2.006       .  S
O119        C129   1.276       .  A
O120       Cu127   2.008       .  S
O120        C130   1.276       .  A
O121       Cu127   2.011       .  S
O121        C131   1.277       .  A
O122       Cu127   2.012       .  S
O122        C132   1.277       .  A
O123       Cu128   2.008       .  S
O123        C132   1.276       .  A
O124       Cu128   2.010       .  S
O124        C131   1.276       .  A
O125       Cu128   2.012       .  S
O125        C130   1.277       .  A
O126       Cu128   2.012       .  S
O126        C129   1.277       .  A
Cu127      Cu128   2.380       .  S
C129        C420   1.435       .  S
C130        C423   1.435       .  S
C131        C421   1.435       .  S
C132        C418   1.435       .  S
O133       Cu141   2.003       .  S
O133        C143   1.276       .  A
O134       Cu141   2.001       .  S
O134        C144   1.275       .  A
O135       Cu141   2.002       .  S
O135        C145   1.275       .  A
O136       Cu141   2.001       .  S
O136        C146   1.275       .  A
O137       Cu142   2.010       .  S
O137        C146   1.277       .  A
O138       Cu142   2.010       .  S
O138        C145   1.276       .  A
O139       Cu142   2.009       .  S
O139        C144   1.276       .  A
O140       Cu142   2.011       .  S
O140        C143   1.277       .  A
Cu141      Cu142   2.381       .  S
C143        C432   1.433       .  S
C144        C415   1.431       .  S
C145        C413   1.432       .  S
C146        C430   1.432       .  S
N147        N148   1.322       .  A
N147        C151   1.344       .  A
N147       Cu599   2.067       .  S
N148        C149   1.346       .  A
N148       Cu154   2.070       .  S
C149        C150   1.381       .  A
C149        H152   1.082       .  S
C150        C422   1.436       .  S
C150        C151   1.378       .  A
C151        H153   1.082       .  S
Cu154       N157   2.069       .  S
Cu155       N165   2.067   1_556  S
Cu155       N591   2.067       .  S
Cu156       N158   2.076       .  S
Cu156       N164   2.076       .  S
N157        N602   1.323       .  A
N157        C161   1.344       .  A
N158        N601   1.323   1_554  A
N158        C159   1.345       .  A
C159        C604   1.382   1_554  A
C159        H162   1.082       .  S
C160        C161   1.380       .  A
C160        C603   1.382       .  A
C160        C688   1.472   1_455  S
C161        H163   1.082       .  S
N164        N165   1.323       .  A
N164        C168   1.347       .  A
N165        C166   1.343       .  A
C166        C167   1.378       .  A
C166        H169   1.082       .  S
C167        C424   1.437       .  S
C167        C168   1.381       .  A
C168        H170   1.082       .  S
N171        N172   1.323       .  A
N171        C175   1.343       .  A
N171       Cu179   2.065       .  S
N172        C173   1.346       .  A
N172       Cu178   2.072       .  S
C173        C174   1.380       .  A
C173        H176   1.082       .  S
C174        C414   1.434       .  S
C174        C175   1.377       .  A
C175        H177   1.082       .  S
Cu178       N181   2.072       .  S
Cu179       N633   2.065   1_554  S
Cu180       N182   2.067       .  S
Cu180       N188   2.068       .  S
N181        N626   1.322       .  A
N181        C185   1.346   1_455  A
N182        N625   1.322       .  A
N182        C183   1.342       .  A
C183        C628   1.380   1_455  A
C183        H186   1.082       .  S
C184        C185   1.382       .  A
C184        C627   1.380   1_654  A
C184        C243   1.471       .  S
C185        H187   1.082       .  S
N188        N189   1.322       .  A
N188        C192   1.345       .  A
N189        C190   1.344       .  A
N189       Cu623   2.065       .  S
C190        C191   1.378       .  A
C190        H193   1.082       .  S
C191        C416   1.433       .  S
C191        C192   1.379       .  A
C192        H194   1.082       .  S
N195        N196   1.322       .  A
N195        C199   1.344       .  A
N195       Cu203   2.065   1_554  S
N196        C197   1.345       .  A
N196       Cu202   2.067       .  S
C197        C198   1.379       .  A
C197        H200   1.082       .  S
C198        C437   1.433       .  S
C198        C199   1.378       .  A
C199        H201   1.082       .  S
Cu202       N205   2.067       .  S
Cu203       N657   2.065       .  S
Cu204       N206   2.074       .  S
Cu204       N212   2.074       .  S
N205        N650   1.323   1_554  A
N205        C209   1.342       .  A
N206        N649   1.323       .  A
N206        C207   1.346       .  A
C207        C652   1.382       .  A
C207        H210   1.082       .  S
C208        C209   1.380   1_556  A
C208        C651   1.382       .  A
C208        C246   1.471       .  S
C209        H211   1.082       .  S
N212        N213   1.323       .  A
N212        C216   1.346       .  A
N213        C214   1.343       .  A
N213       Cu647   2.065       .  S
C214        C215   1.377       .  A
C214        H217   1.082       .  S
C215        C440   1.434       .  S
C215        C216   1.380       .  A
C216        H218   1.082       .  S
N219        N220   1.322       .  A
N219        C223   1.343       .  A
N219       Cu671   2.066       .  S
N220        C221   1.347       .  A
N220       Cu226   2.076       .  S
C221        C222   1.382       .  A
C221        H224   1.082       .  S
C222        C410   1.437       .  S
C222        C223   1.377       .  A
C223        H225   1.082       .  S
Cu226       N229   2.077       .  S
Cu227       N237   2.067       .  S
Cu227       N663   2.066   1_554  S
Cu228       N230   2.070       .  S
Cu228       N236   2.071       .  S
N229        N674   1.324       .  A
N229        C233   1.345       .  A
N230        N673   1.324   1_554  A
N230        C231   1.344       .  A
C231        C676   1.380       .  A
C231        H234   1.082       .  S
C232        C233   1.382       .  A
C232        C675   1.380       .  A
C232        C691   1.472       .  S
C233        H235   1.082       .  S
N236        N237   1.322       .  A
N236        C240   1.347       .  A
N237        C238   1.344       .  A
C238        C239   1.378       .  A
C238        H241   1.082       .  S
C239        C411   1.437       .  S
C239        C240   1.381       .  A
C240        H242   1.082       .  S
C243        C244   1.409   1_554  A
C243        C248   1.400       .  A
C244        C245   1.401       .  A
C244        C604   1.472   1_655  S
C245        C246   1.400       .  A
C245        H250   1.085       .  S
C246        C247   1.409   1_556  A
C247        C248   1.401       .  A
C247        C676   1.472       .  S
C248        H249   1.085       .  S
O251       Cu259   2.006       .  S
O251        C261   1.276       .  A
O252       Cu259   2.006       .  S
O252        C262   1.276       .  A
O253       Cu259   2.012       .  S
O253        C263   1.277       .  A
O254       Cu259   2.016       .  S
O254        C264   1.277       .  A
O255       Cu260   2.012       .  S
O255        C264   1.277       .  A
O256       Cu260   2.009       .  S
O256        C263   1.276       .  A
O257       Cu260   2.009       .  S
O257        C262   1.276       .  A
O258       Cu260   2.010       .  S
O258        C261   1.276       .  A
Cu259      Cu260   2.380       .  S
C261        C426   1.433       .  S
C262        C406   1.433       .  S
C263        C407   1.436       .  S
C264        C428   1.438       .  S
O265       Cu273   2.012       .  S
O265        C275   1.277       .  A
O266       Cu273   2.012       .  S
O266        C276   1.277       .  A
O267       Cu273   2.009       .  S
O267        C277   1.276       .  A
O268       Cu273   2.007       .  S
O268        C278   1.276       .  A
O269       Cu274   2.012       .  S
O269        C278   1.277       .  A
O270       Cu274   2.012       .  S
O270        C277   1.277       .  A
O271       Cu274   2.008       .  S
O271        C276   1.276       .  A
O272       Cu274   2.007       .  S
O272        C275   1.276       .  A
Cu273      Cu274   2.380       .  S
C275        C402   1.435       .  S
C276        C409   1.435       .  S
C277        C412   1.435       .  S
C278        C403   1.435       .  S
O279       Cu287   2.009       .  S
O279        C289   1.276       .  A
O280       Cu287   2.010       .  S
O280        C290   1.276       .  A
O281       Cu287   2.011       .  S
O281        C291   1.277       .  A
O282       Cu287   2.009       .  S
O282        C292   1.276       .  A
O283       Cu288   2.012       .  S
O283        C292   1.277       .  A
O284       Cu288   2.015       .  S
O284        C291   1.277       .  A
O285       Cu288   2.007       .  S
O285        C290   1.276       .  A
O286       Cu288   2.008       .  S
O286        C289   1.276       .  A
Cu287      Cu288   2.380       .  S
C289        C399   1.434       .  S
C290        C436   1.434       .  S
C291        C433   1.438       .  S
C292        C398   1.435       .  S
N293        N294   1.321       .  A
N293        C297   1.348       .  A
N293       Cu301   2.078       .  S
N294        C295   1.343       .  A
N294       Cu300   2.059   1_554  S
C295        C296   1.377       .  A
C295        H298   1.082       .  S
C296        C417   1.437       .  S
C296        C297   1.383       .  A
C297        H299   1.082       .  S
Cu300       N747   2.059       .  S
Cu301       N311   2.080       .  S
Cu302       N304   2.086       .  S
Cu302       N310   2.087       .  S
N303        N304   1.323       .  A
N303        C307   1.342       .  A
N303       Cu744   2.059       .  S
N304        C305   1.349       .  A
C305        C306   1.383       .  A
C305        H308   1.082       .  S
C306        C419   1.436       .  S
C306        C307   1.375       .  A
C307        H309   1.082       .  S
N310        N755   1.325       .  A
N310        C314   1.349       .  A
N311        N754   1.325   1_554  A
N311        C312   1.344       .  A
C312        C313   1.380   1_554  A
C312        H315   1.082       .  S
C313        C758   1.383       .  A
C313        C833   1.475       .  S
C314        C757   1.383       .  A
C314        H316   1.082       .  S
N317        N318   1.322       .  A
N317        C321   1.348       .  A
N317       Cu325   2.083       .  S
N318        C319   1.342       .  A
N318       Cu324   2.057       .  S
C319        C320   1.376       .  A
C319        H322   1.082       .  S
C320        C397   1.437       .  S
C320        C321   1.383       .  A
C321        H323   1.082       .  S
Cu324       N771   2.057       .  S
Cu325       N335   2.084       .  S
Cu326       N328   2.083       .  S
Cu326       N334   2.084       .  S
N327        N328   1.322       .  A
N327        C331   1.341       .  A
N327       Cu768   2.057       .  S
N328        C329   1.349       .  A
C329        C330   1.383       .  A
C329        H332   1.082       .  S
C330        C400   1.435       .  S
C330        C331   1.375       .  A
C331        H333   1.082       .  S
N334        N779   1.325   1_554  A
N334        C338   1.348       .  A
N335        N778   1.325       .  A
N335        C336   1.345       .  A
C336        C337   1.382       .  A
C336        H339   1.082       .  S
C337        C782   1.381       .  A
C337        C390   1.476       .  S
C338        C781   1.382       .  A
C338        H340   1.082       .  S
N341        N342   1.322       .  A
N341        C345   1.348       .  A
N341       Cu349   2.080       .  S
N342        C343   1.341       .  A
N342       Cu348   2.057       .  S
C343        C344   1.375       .  A
C343        H346   1.082       .  S
C344        C405   1.435       .  S
C344        C345   1.383       .  A
C345        H347   1.082       .  S
Cu348       N795   2.057       .  S
Cu349       N359   2.081       .  S
Cu350       N352   2.083       .  S
Cu350       N358   2.084       .  S
N351        N352   1.322       .  A
N351        C355   1.342       .  A
N351       Cu792   2.057   1_554  S
N352        C353   1.348       .  A
C353        C354   1.384       .  A
C353        H356   1.082       .  S
C354        C408   1.437       .  S
C354        C355   1.376       .  A
C355        H357   1.082       .  S
N358        N803   1.325   1_554  A
N358        C362   1.345       .  A
N359        N802   1.325       .  A
N359        C360   1.347       .  A
C360        C361   1.381       .  A
C360        H363   1.082       .  S
C361        C806   1.382       .  A
C361        C393   1.475       .  S
C362        C805   1.382   1_554  A
C362        H364   1.082       .  S
N365        N366   1.323       .  A
N365        C369   1.349       .  A
N365       Cu373   2.087       .  S
N366        C367   1.342       .  A
N366       Cu372   2.059       .  S
C367        C368   1.375       .  A
C367        H370   1.082       .  S
C368        C401   1.436       .  S
C368        C369   1.383       .  A
C369        H371   1.082       .  S
Cu372       N819   2.059   1_554  S
Cu373       N383   2.088       .  S
Cu374       N376   2.078       .  S
Cu374       N382   2.079       .  S
N375        N376   1.321       .  A
N375        C379   1.343       .  A
N375       Cu816   2.059       .  S
N376        C377   1.348       .  A
C377        C378   1.383       .  A
C377        H380   1.082       .  S
C378        C404   1.437       .  S
C378        C379   1.377       .  A
C379        H381   1.082       .  S
N382        N827   1.325       .  A
N382        C386   1.344       .  A
N383        N826   1.325   1_554  A
N383        C384   1.349       .  A
C384        C385   1.383       .  A
C384        H387   1.082       .  S
C385        C830   1.380   1_554  A
C385        C836   1.475       .  S
C386        C829   1.380       .  A
C386        H388   1.082       .  S
C389        C390   1.412       .  A
C389        C394   1.403       .  A
C389        C757   1.475       .  S
C390        C391   1.403       .  A
C391        C392   1.403       .  A
C391        H396   1.084       .  S
C392        C393   1.412       .  A
C392        C829   1.475       .  S
C393        C394   1.403       .  A
C394        H395   1.084       .  S
C397        C398   1.206       .  T
C399        C400   1.205       .  T
C401        C402   1.206       .  T
C403        C404   1.206       .  T
C405        C406   1.205       .  T
C407        C408   1.206       .  T
C409        C410   1.206       .  T
C411        C412   1.206       .  T
C413        C414   1.204       .  T
C415        C416   1.203       .  T
C417        C418   1.206       .  T
C419        C420   1.206       .  T
C421        C422   1.206       .  T
C423        C424   1.206       .  T
C425        C426   1.205       .  T
C427        C428   1.208       .  T
C429        C430   1.204       .  T
C431        C432   1.204       .  T
C433        C434   1.207       .  T
C435        C436   1.205       .  T
C437        C438   1.203       .  T
C439        C440   1.204       .  T
C441        C442   1.204       .  T
C443        C444   1.204       .  T
O445       Cu453   2.008       .  S
O445        C455   1.276       .  A
O446       Cu453   2.010       .  S
O446        C456   1.276       .  A
O447       Cu453   2.011       .  S
O447        C457   1.277       .  A
O448       Cu453   2.011       .  S
O448        C458   1.277       .  A
O449       Cu454   2.003       .  S
O449        C458   1.276       .  A
O450       Cu454   2.001       .  S
O450        C457   1.275       .  A
O451       Cu454   2.003       .  S
O451        C456   1.276       .  A
O452       Cu454   2.001       .  S
O452        C455   1.275       .  A
Cu453      Cu454   2.381       .  S
C455        C882   1.431       .  S
C456        C885   1.433       .  S
C457        C887   1.432       .  S
C458        C883   1.433       .  S
N459        N460   1.323       .  A
N459        C463   1.344       .  A
N460        C461   1.348       .  A
N460       Cu466   2.084       .  S
C461        C462   1.383       .  A
C461        H464   1.082       .  S
C462        C878   1.439       .  S
C462        C463   1.378       .  A
C463        H465   1.082       .  S
Cu466       N469   2.084       .  S
Cu467       N477   2.067   1_554  S
Cu468       N470   2.070       .  S
Cu468       N476   2.070       .  S
N469        C473   1.346       .  A
N470        C471   1.345       .  A
C471        H474   1.082       .  S
C472        C473   1.383       .  A
C473        H475   1.082       .  S
N476        N477   1.322       .  A
N476        C480   1.346       .  A
N477        C478   1.344       .  A
C478        C479   1.378       .  A
C478        H481   1.082       .  S
C479        C879   1.435       .  S
C479        C480   1.380       .  A
C480        H482   1.082       .  S
N483        N484   1.322       .  A
N483        C487   1.344       .  A
N483       Cu491   2.065   1_556  S
N484        C485   1.345       .  A
N484       Cu490   2.070       .  S
C485        C486   1.379       .  A
C485        H488   1.082       .  S
C486        C873   1.434       .  S
C486        C487   1.379       .  A
C487        H489   1.082       .  S
Cu490       N493   2.070   1_556  S
Cu492       N494   2.077       .  S
Cu492       N500   2.077       .  S
N493        C497   1.343   1_554  A
N494        C495   1.346   1_565  A
C495        H498   1.082       .  S
C496        C497   1.380   1_544  A
C496        C555   1.472       .  S
C497        H499   1.082       .  S
N500        N501   1.323       .  A
N500        C504   1.346       .  A
N501        C502   1.343       .  A
C502        C503   1.377       .  A
C502        H505   1.082       .  S
C503        C875   1.435       .  S
C503        C504   1.381       .  A
C504        H506   1.082       .  S
N507        N508   1.322       .  A
N507        C511   1.344       .  A
N508        C509   1.346       .  A
N508       Cu514   2.071       .  S
C509        C510   1.380       .  A
C509        H512   1.082       .  S
C510        C869   1.435       .  S
C510        C511   1.378       .  A
C511        H513   1.082       .  S
Cu514       N517   2.071       .  S
Cu515       N525   2.067       .  S
Cu516       N518   2.085       .  S
Cu516       N524   2.084       .  S
N517        C521   1.345       .  A
N518        C519   1.346       .  A
C519        H522   1.082       .  S
C520        C521   1.380       .  A
C521        H523   1.082       .  S
N524        N525   1.323       .  A
N524        C528   1.348       .  A
N525        C526   1.344       .  A
C526        C527   1.378       .  A
C526        H529   1.082       .  S
C527        C871   1.440       .  S
C527        C528   1.383       .  A
C528        H530   1.082       .  S
N531        N532   1.323       .  A
N531        C535   1.343       .  A
N531       Cu539   2.065       .  S
N532        C533   1.346       .  A
N532       Cu538   2.076       .  S
C533        C534   1.381       .  A
C533        H536   1.082       .  S
C534        C886   1.434       .  S
C534        C535   1.377       .  A
C535        H537   1.082       .  S
Cu538       N541   2.076       .  S
Cu540       N542   2.071       .  S
Cu540       N548   2.071       .  S
N541        C545   1.346       .  A
N542        C543   1.343       .  A
C543        H546   1.082       .  S
C544        C545   1.383       .  A
C544        C558   1.472       .  S
C545        H547   1.082       .  S
N548        N549   1.322       .  A
N548        C552   1.345       .  A
N549        C550   1.345       .  A
C550        C551   1.379       .  A
C550        H553   1.082       .  S
C551        C888   1.435       .  S
C551        C552   1.380       .  A
C552        H554   1.082       .  S
C555        C556   1.409   1_554  A
C555        C560   1.402       .  A
C556        C557   1.402       .  A
C557        C558   1.402       .  A
C557        H562   1.085       .  S
C558        C559   1.409   1_556  A
C559        C560   1.402       .  A
C560        H561   1.085       .  S
O563       Cu571   2.007       .  S
O563        C573   1.276       .  A
O564       Cu571   2.008       .  S
O564        C574   1.276       .  A
O565       Cu571   2.011       .  S
O565        C575   1.277       .  A
O566       Cu571   2.012       .  S
O566        C576   1.277       .  A
O567       Cu572   2.007       .  S
O567        C576   1.276       .  A
O568       Cu572   2.009       .  S
O568        C575   1.276       .  A
O569       Cu572   2.012       .  S
O569        C574   1.277       .  A
O570       Cu572   2.012       .  S
O570        C573   1.277       .  A
Cu571      Cu572   2.380       .  S
C573        C864   1.435       .  S
C574        C867   1.435       .  S
C575        C865   1.435       .  S
C576        C862   1.435       .  S
O577       Cu585   2.003       .  S
O577        C587   1.276       .  A
O578       Cu585   2.001       .  S
O578        C588   1.275       .  A
O579       Cu585   2.002       .  S
O579        C589   1.275       .  A
O580       Cu585   2.001       .  S
O580        C590   1.275       .  A
O581       Cu586   2.010       .  S
O581        C590   1.277       .  A
O582       Cu586   2.010       .  S
O582        C589   1.276       .  A
O583       Cu586   2.009       .  S
O583        C588   1.276       .  A
O584       Cu586   2.011       .  S
O584        C587   1.277       .  A
Cu585      Cu586   2.381       .  S
C587        C876   1.433       .  S
C588        C859   1.431       .  S
C589        C857   1.432       .  S
C590        C874   1.432       .  S
N591        N592   1.322       .  A
N591        C595   1.344       .  A
N592        C593   1.346       .  A
N592       Cu598   2.070       .  S
C593        C594   1.381       .  A
C593        H596   1.082       .  S
C594        C866   1.436       .  S
C594        C595   1.378       .  A
C595        H597   1.082       .  S
Cu598       N601   2.069       .  S
Cu599       N609   2.067       .  S
Cu600       N602   2.077       .  S
Cu600       N608   2.076       .  S
N601        C605   1.344       .  A
N602        C603   1.345       .  A
C603        H606   1.082       .  S
C604        C605   1.380       .  A
C605        H607   1.082       .  S
N608        N609   1.323       .  A
N608        C612   1.347       .  A
N609        C610   1.343       .  A
C610        C611   1.378       .  A
C610        H613   1.082       .  S
C611        C868   1.437       .  S
C611        C612   1.381       .  A
C612        H614   1.082       .  S
N615        N616   1.323       .  A
N615        C619   1.343       .  A
N615       Cu623   2.065       .  S
N616        C617   1.346       .  A
N616       Cu622   2.073       .  S
C617        C618   1.380       .  A
C617        H620   1.082       .  S
C618        C858   1.434       .  S
C618        C619   1.377       .  A
C619        H621   1.082       .  S
Cu622       N625   2.073       .  S
Cu624       N626   2.067   1_556  S
Cu624       N632   2.068       .  S
N625        C629   1.346   1_455  A
N626        C627   1.342   1_554  A
C627        H630   1.082       .  S
C628        C629   1.383       .  A
C628        C687   1.471       .  S
C629        H631   1.082       .  S
N632        N633   1.322       .  A
N632        C636   1.345       .  A
N633        C634   1.344       .  A
C634        C635   1.378       .  A
C634        H637   1.082       .  S
C635        C860   1.433       .  S
C635        C636   1.379       .  A
C636        H638   1.082       .  S
N639        N640   1.322       .  A
N639        C643   1.344       .  A
N639       Cu647   2.065       .  S
N640        C641   1.345       .  A
N640       Cu646   2.067       .  S
C641        C642   1.379       .  A
C641        H644   1.082       .  S
C642        C881   1.433       .  S
C642        C643   1.378       .  A
C643        H645   1.082       .  S
Cu646       N649   2.066       .  S
Cu648       N650   2.073       .  S
Cu648       N656   2.073       .  S
N649        C653   1.342       .  A
N650        C651   1.346       .  A
C651        H654   1.082       .  S
C652        C653   1.380       .  A
C652        C690   1.471       .  S
C653        H655   1.082       .  S
N656        N657   1.323       .  A
N656        C660   1.346       .  A
N657        C658   1.343       .  A
C658        C659   1.377       .  A
C658        H661   1.082       .  S
C659        C884   1.434       .  S
C659        C660   1.380       .  A
C660        H662   1.082       .  S
N663        N664   1.322       .  A
N663        C667   1.343       .  A
N664        C665   1.347       .  A
N664       Cu670   2.076       .  S
C665        C666   1.382       .  A
C665        H668   1.082       .  S
C666        C854   1.437       .  S
C666        C667   1.377       .  A
C667        H669   1.082       .  S
Cu670       N673   2.077       .  S
Cu671       N681   2.067       .  S
Cu672       N674   2.070       .  S
Cu672       N680   2.071       .  S
N673        C677   1.345       .  A
N674        C675   1.344       .  A
C675        H678   1.082       .  S
C676        C677   1.382   1_554  A
C677        H679   1.082       .  S
N680        N681   1.322       .  A
N680        C684   1.347       .  A
N681        C682   1.344       .  A
C682        C683   1.378       .  A
C682        H685   1.082       .  S
C683        C855   1.437       .  S
C683        C684   1.381       .  A
C684        H686   1.082       .  S
C687        C688   1.409       .  A
C687        C692   1.400       .  A
C688        C689   1.401       .  A
C689        C690   1.400       .  A
C689        H694   1.085       .  S
C690        C691   1.409       .  A
C691        C692   1.401       .  A
C692        H693   1.085       .  S
O695       Cu703   2.006       .  S
O695        C705   1.276       .  A
O696       Cu703   2.006       .  S
O696        C706   1.276       .  A
O697       Cu703   2.012       .  S
O697        C707   1.277       .  A
O698       Cu703   2.016       .  S
O698        C708   1.277       .  A
O699       Cu704   2.012       .  S
O699        C708   1.277       .  A
O700       Cu704   2.009       .  S
O700        C707   1.276       .  A
O701       Cu704   2.009       .  S
O701        C706   1.276       .  A
O702       Cu704   2.010       .  S
O702        C705   1.277       .  A
Cu703      Cu704   2.380       .  S
C705        C870   1.434       .  S
C706        C850   1.433       .  S
C707        C851   1.436       .  S
C708        C872   1.438       .  S
O709       Cu717   2.012       .  S
O709        C719   1.277       .  A
O710       Cu717   2.012       .  S
O710        C720   1.277       .  A
O711       Cu717   2.009       .  S
O711        C721   1.276       .  A
O712       Cu717   2.007       .  S
O712        C722   1.276       .  A
O713       Cu718   2.012       .  S
O713        C722   1.277       .  A
O714       Cu718   2.012       .  S
O714        C721   1.277       .  A
O715       Cu718   2.008       .  S
O715        C720   1.276       .  A
O716       Cu718   2.006       .  S
O716        C719   1.276       .  A
Cu717      Cu718   2.380       .  S
C719        C846   1.435       .  S
C720        C853   1.435       .  S
C721        C856   1.435       .  S
C722        C847   1.435       .  S
O723       Cu731   2.009       .  S
O723        C733   1.276       .  A
O724       Cu731   2.009       .  S
O724        C734   1.276       .  A
O725       Cu731   2.012       .  S
O725        C735   1.277       .  A
O726       Cu731   2.009       .  S
O726        C736   1.276       .  A
O727       Cu732   2.012       .  S
O727        C736   1.277       .  A
O728       Cu732   2.015       .  S
O728        C735   1.277       .  A
O729       Cu732   2.007       .  S
O729        C734   1.276       .  A
O730       Cu732   2.008       .  S
O730        C733   1.276       .  A
Cu731      Cu732   2.380       .  S
C733        C843   1.434       .  S
C734        C880   1.434       .  S
C735        C877   1.438       .  S
C736        C842   1.436       .  S
N737        N738   1.321       .  A
N737        C741   1.348       .  A
N737       Cu745   2.078       .  S
N738        C739   1.343       .  A
N738       Cu744   2.059       .  S
C739        C740   1.377       .  A
C739        H742   1.082       .  S
C740        C861   1.437       .  S
C740        C741   1.383       .  A
C741        H743   1.082       .  S
Cu745       N755   2.079       .  S
Cu746       N748   2.087       .  S
Cu746       N754   2.088       .  S
N747        N748   1.323       .  A
N747        C751   1.342       .  A
N748        C749   1.349       .  A
C749        C750   1.384       .  A
C749        H752   1.082       .  S
C750        C863   1.436       .  S
C750        C751   1.375       .  A
C751        H753   1.082       .  S
N754        C758   1.349       .  A
N755        C756   1.344       .  A
C756        C757   1.380       .  A
C756        H759   1.082       .  S
C758        H760   1.082       .  S
N761        N762   1.322       .  A
N761        C765   1.348       .  A
N761       Cu769   2.083       .  S
N762        C763   1.342       .  A
N762       Cu768   2.057   1_556  S
C763        C764   1.376       .  A
C763        H766   1.082       .  S
C764        C841   1.437       .  S
C764        C765   1.383       .  A
C765        H767   1.082       .  S
Cu769       N779   2.084       .  S
Cu770       N772   2.082       .  S
Cu770       N778   2.082       .  S
N771        N772   1.322       .  A
N771        C775   1.341       .  A
N772        C773   1.348       .  A
C773        C774   1.383       .  A
C773        H776   1.082       .  S
C774        C844   1.435       .  S
C774        C775   1.375       .  A
C775        H777   1.082       .  S
N778        C782   1.347       .  A
N779        C780   1.345       .  A
C780        C781   1.382   1_556  A
C780        H783   1.082       .  S
C781        C834   1.476       .  S
C782        H784   1.082       .  S
N785        N786   1.322       .  A
N785        C789   1.348       .  A
N785       Cu793   2.082       .  S
N786        C787   1.341       .  A
N786       Cu792   2.057       .  S
C787        C788   1.375       .  A
C787        H790   1.082       .  S
C788        C849   1.435       .  S
C788        C789   1.383       .  A
C789        H791   1.082       .  S
Cu793       N803   2.083       .  S
Cu794       N796   2.083       .  S
Cu794       N802   2.084       .  S
N795        N796   1.322       .  A
N795        C799   1.342       .  A
N796        C797   1.348       .  A
C797        C798   1.384       .  A
C797        H800   1.082       .  S
C798        C852   1.437       .  S
C798        C799   1.376       .  A
C799        H801   1.082       .  S
N802        C806   1.345       .  A
N803        C804   1.348       .  A
C804        C805   1.382       .  A
C804        H807   1.082       .  S
C805        C837   1.476       .  S
C806        H808   1.082       .  S
N809        N810   1.323       .  A
N809        C813   1.349       .  A
N809       Cu817   2.087       .  S
N810        C811   1.342       .  A
N810       Cu816   2.059       .  S
C811        C812   1.375       .  A
C811        H814   1.082       .  S
C812        C845   1.436       .  S
C812        C813   1.383       .  A
C813        H815   1.082       .  S
Cu817       N827   2.088       .  S
Cu818       N820   2.078       .  S
Cu818       N826   2.079       .  S
N819        N820   1.321       .  A
N819        C823   1.343       .  A
N820        C821   1.348       .  A
C821        C822   1.383       .  A
C821        H824   1.082       .  S
C822        C848   1.436       .  S
C822        C823   1.377       .  A
C823        H825   1.082       .  S
N826        C830   1.344       .  A
N827        C828   1.349       .  A
C828        C829   1.383       .  A
C828        H831   1.082       .  S
C830        H832   1.082       .  S
C833        C834   1.412   1_556  A
C833        C838   1.403       .  A
C834        C835   1.403       .  A
C835        C836   1.403       .  A
C835        H840   1.084       .  S
C836        C837   1.412   1_554  A
C837        C838   1.403       .  A
C838        H839   1.084       .  S
C841        C842   1.206       .  T
C843        C844   1.205       .  T
C845        C846   1.205       .  T
C847        C848   1.206       .  T
C849        C850   1.205       .  T
C851        C852   1.206       .  T
C853        C854   1.206       .  T
C855        C856   1.206       .  T
C857        C858   1.204       .  T
C859        C860   1.203       .  T
C861        C862   1.206       .  T
C863        C864   1.206       .  T
C865        C866   1.206       .  T
C867        C868   1.206       .  T
C869        C870   1.205       .  T
C871        C872   1.207       .  T
C873        C874   1.204       .  T
C875        C876   1.204       .  T
C877        C878   1.207       .  T
C879        C880   1.205       .  T
C881        C882   1.203       .  T
C883        C884   1.204       .  T
C885        C886   1.204       .  T
C887        C888   1.204       .  T
