geometry optimzed in LAMMPS
_audit_creation_date              2020-11-30 
_audit_creation_method            'lammps2cif' 
_symmetry_space_group_name_H-M    'P1' 
_symmetry_Int_Tables_number       1 
_symmetry_cell_setting            triclinic 
loop_ 
_symmetry_equiv_pos_as_xyz 
  x,y,z 
_cell_length_a                    32.94746498 
_cell_length_b                    33.092608944351085 
_cell_length_c                    33.09082190388607 
_cell_angle_alpha                 90.3443839497468 
_cell_angle_beta                  89.3980565654991 
_cell_angle_gamma                 89.39812212616975 
loop_ 
_atom_site_label 
_atom_site_type_symbol 
_atom_site_fract_x 
_atom_site_fract_y 
_atom_site_fract_z 
_atom_site_charge 
C1          C  0.38502400  0.67135550  0.11436820     0.87700
C2          C  0.35624960  0.64778912  0.08666684    -0.52600
C3          C  0.32934681  0.62310125  0.10632637     0.10600
C4          C  0.33455346  0.62417650  0.15296909     0.21500
C5          C  0.35728682  0.69369776  0.14403118    -0.53300
C6          C  0.33022566  0.67000108  0.16444525     0.10700
C7          C  0.40550660  0.63783952  0.13868154    -0.52800
C8          C  0.38005133  0.61334701  0.15913725     0.11300
H9          H  0.35918498  0.64829054  0.05398632     0.15800
H10         H  0.31395985  0.60393351  0.16975256     0.01500
H11         H  0.35849420  0.72612157  0.14850299     0.16100
H12         H  0.43755470  0.63024905  0.13618384     0.15900
C13         C  0.71849733  0.21273935  0.10280042     0.87700
C14         C  0.74488633  0.24435553  0.08221487    -0.52600
C15         C  0.76626549  0.26793569  0.10795420     0.10600
C16         C  0.75965434  0.25727081  0.15311585     0.21500
C17         C  0.74781796  0.18893574  0.12911800    -0.53300
C18         C  0.76907303  0.21087061  0.15742550     0.10700
C19         C  0.69231904  0.23841424  0.13224648    -0.52800
C20         C  0.71319854  0.26141653  0.15926873     0.11300
H21         H  0.74233892  0.25199637  0.05048274     0.15800
H22         H  0.77771493  0.27715797  0.17259975     0.01500
H23         H  0.75242801  0.15749431  0.12245580     0.16100
H24         H  0.65980480  0.24177790  0.12862266     0.15900
C25         C  0.71783908  0.62248154  0.18213903     0.87700
C26         C  0.74757616  0.59860636  0.15460094    -0.52600
C27         C  0.77387984  0.62124741  0.13229159     0.10600
C28         C  0.76684440  0.66717750  0.13845773     0.21500
C29         C  0.74502372  0.65036481  0.20727200    -0.53300
C30         C  0.77172459  0.67369311  0.18519297     0.10700
C31         C  0.69634996  0.65054318  0.15221763    -0.52800
C32         C  0.72110704  0.67387715  0.12936091     0.11300
H33         H  0.74603463  0.56608559  0.15072580     0.15800
H34         H  0.78649796  0.68598752  0.11906074     0.01500
H35         H  0.74425922  0.65076044  0.24002336     0.16100
H36         H  0.66434790  0.64861209  0.14522324     0.15900
C37         C  0.31597079  0.27495003  0.11348653     0.87700
C38         C  0.34314256  0.24560529  0.08892679    -0.52600
C39         C  0.36775974  0.22116373  0.11124629     0.10600
C40         C  0.36354152  0.22954108  0.15712769     0.21500
C41         C  0.29348530  0.24811204  0.14370392    -0.53300
C42         C  0.31727701  0.22373038  0.16783197     0.10700
C43         C  0.34683864  0.29837442  0.13861969    -0.52800
C44         C  0.37195067  0.27527549  0.16119716     0.11300
H45         H  0.34597053  0.24697742  0.05630995     0.15800
H46         H  0.38550327  0.21251033  0.17287993     0.01500
H47         H  0.26077090  0.24816957  0.14587494     0.16100
H48         H  0.35250260  0.33040046  0.13476981     0.15900
O49         O  0.50541599  0.47873212  0.23464557    -0.70600
O50         O  0.59009953  0.39931723  0.24463066    -0.70800
O51         O  0.58696929  0.48148280  0.24674531    -0.70700
O52         O  0.50933007  0.39727615  0.23309976    -0.70700
O53         O  0.52393916  0.39520583  0.16910600    -0.70600
O54         O  0.59246049  0.48628528  0.18146351    -0.70700
O55         O  0.60358745  0.40587792  0.18057661    -0.70600
O56         O  0.51245142  0.47521663  0.16944700    -0.70800
V57         V  0.54824889  0.43936774  0.23872078     1.35200
V58         V  0.55798241  0.44071935  0.17645873     1.35200
C59         C  0.49322833  0.48890443  0.19987793     0.78600
C60         C  0.61109813  0.38914462  0.21386347     0.78700
C61         C  0.60238209  0.49867099  0.21619414     0.78600
C62         C  0.50390358  0.38130814  0.19870332     0.78500
C63         C  0.39039482  0.27481985  0.71929703     0.87700
C64         C  0.40734137  0.24146073  0.74659381    -0.52600
C65         C  0.37950331  0.22216143  0.76955571     0.10600
C66         C  0.33538948  0.23380271  0.75883156     0.21500
C67         C  0.36149495  0.25142165  0.69110299    -0.53300
C68         C  0.33353959  0.22745482  0.71144348     0.10700
C69         C  0.36155155  0.30037086  0.74561812    -0.52800
C70         C  0.33246936  0.28003744  0.76616478     0.11300
H71         H  0.43968764  0.23700813  0.75139143     0.15800
H72         H  0.31257586  0.21722387  0.77687859     0.01500
H73         H  0.36398716  0.25167903  0.65846072     0.16100
H74         H  0.36565298  0.33272611  0.74937224     0.15900
C75         C  0.69665763  0.23607126  0.76860802     0.87700
C76         C  0.68373537  0.26900513  0.73874827    -0.52600
C77         C  0.71484378  0.29149409  0.72370681     0.10600
C78         C  0.75690749  0.27949061  0.74053971     0.21500
C79         C  0.72821406  0.21213709  0.74460947    -0.53300
C80         C  0.76142710  0.23312354  0.73066877     0.10700
C81         C  0.72044436  0.25872438  0.80090500    -0.52800
C82         C  0.75096633  0.28239178  0.78696396     0.11300
H83         H  0.65303479  0.27633605  0.73049847     0.15800
H84         H  0.78101202  0.29946282  0.72905440     0.01500
H85         H  0.72148126  0.18170624  0.73568684     0.16100
H86         H  0.71094887  0.25921621  0.83248784     0.15900
C87         C  0.77231169  0.61718600  0.77606197     0.87700
C88         C  0.73804985  0.60264686  0.74904853    -0.52600
C89         C  0.71797544  0.63267356  0.72928343     0.10600
C90         C  0.73438232  0.67571916  0.73888510     0.21500
C91         C  0.79897882  0.64149740  0.74795237    -0.53300
C92         C  0.78084229  0.67323208  0.72784994     0.10700
C93         C  0.75111807  0.64780252  0.80402530    -0.52800
C94         C  0.73143004  0.67884542  0.78550752     0.11300
H95         H  0.72705296  0.57198321  0.74801947     0.15800
H96         H  0.71723671  0.70045459  0.72616112     0.01500
H97         H  0.82931833  0.63071425  0.74193291     0.16100
H98         H  0.74859222  0.64230821  0.83623354     0.15900
C99         C  0.37584276  0.68626233  0.79414927     0.87700
C100        C  0.40310038  0.65824644  0.76854549    -0.52600
C101        C  0.38324679  0.63414894  0.74204742     0.10600
C102        C  0.33688883  0.64059022  0.74274046     0.21500
C103        C  0.35074997  0.70974228  0.76376288    -0.53300
C104        C  0.33086556  0.68719577  0.73504962     0.10700
C105        C  0.34557476  0.65708267  0.81378366    -0.52800
C106        C  0.32483763  0.63308909  0.78762003     0.11300
H107        H  0.43542780  0.65463434  0.77395577     0.15800
H108        H  0.32109015  0.61988949  0.72197434     0.01500
H109        H  0.34703028  0.74162458  0.76780960     0.16100
H110        H  0.34454792  0.65072281  0.84573582     0.15900
O111        O  0.24331209  0.48846455  0.98255736    -0.70600
O112        O  0.24431185  0.40691396  0.89929811    -0.70800
O113        O  0.23907399  0.40654962  0.98103769    -0.70700
O114        O  0.24768672  0.48881656  0.90102195    -0.70700
O115        O  0.31323217  0.48103946  0.90007478    -0.70600
O116        O  0.30466532  0.40665891  0.98740320    -0.70700
O117        O  0.30944488  0.39994439  0.90674075    -0.70600
O118        O  0.30926940  0.48730176  0.98164469    -0.70800
V119        V  0.24475055  0.44758426  0.94100820     1.35200
V120        V  0.30785597  0.44388276  0.94386850     1.35200
C121        C  0.27653116  0.50199681  0.99585101     0.78600
C122        C  0.27726531  0.38893126  0.88968466     0.78700
C123        C  0.27048226  0.39317896  0.99832046     0.78600
C124        C  0.28185282  0.49848996  0.88642013     0.78500
O125        O  0.60073599  0.75929255  0.99396924    -0.70600
O126        O  0.51697110  0.76992597  0.91386926    -0.70800
O127        O  0.51818724  0.76502772  0.99502926    -0.70700
O128        O  0.59943529  0.76585328  0.91254186    -0.70700
O129        O  0.59203069  0.70112877  0.90408050    -0.70600
O130        O  0.51938849  0.69930717  0.99355786    -0.70700
O131        O  0.51122541  0.70454603  0.91390448    -0.70600
O132        O  0.60012373  0.69449364  0.98392293    -0.70800
V133        V  0.55882185  0.76397583  0.95373230     1.35200
V134        V  0.55577823  0.70123005  0.94894573     1.35200
C135        C  0.61544285  0.72447171  0.00160790     0.78600
C136        C  0.49893381  0.73843592  0.90166853     0.78700
C137        C  0.50535769  0.73187929  0.00848845     0.78600
C138        C  0.60912194  0.73363064  0.89406427     0.78500
O139        O  0.78285157  0.50148305  0.91500874    -0.70600
O140        O  0.77271495  0.43002793  0.00327437    -0.70800
O141        O  0.78741820  0.50927455  0.99528480    -0.70700
O142        O  0.76769453  0.42344099  0.92272202    -0.70700
O143        O  0.83224272  0.41207405  0.91561055    -0.70600
O144        O  0.85174336  0.49407603  0.99573462    -0.70700
O145        O  0.83642562  0.41387065  0.99742993    -0.70600
O146        O  0.84822671  0.49159278  0.91369624    -0.70800
V147        V  0.77904319  0.46583138  0.95916609     1.35200
V148        V  0.84109717  0.45318583  0.95581501     1.35200
C149        C  0.81703009  0.50818378  0.89899839     0.78600
C150        C  0.80243543  0.40859596  0.01467296     0.78700
C151        C  0.82248465  0.51610908  0.00841926     0.78600
C152        C  0.79616843  0.40416184  0.90522240     0.78500
O153        O  0.51287828  0.19619627  0.99962612    -0.70600
O154        O  0.57154695  0.20344848  0.90121760    -0.70800
O155        O  0.49339397  0.20650026  0.92206233    -0.70700
O156        O  0.59153318  0.19306838  0.97853946    -0.70700
O157        O  0.58295525  0.12799880  0.97881049    -0.70600
O158        O  0.49440020  0.14279207  0.90641384    -0.70700
O159        O  0.57596054  0.13791392  0.89790865    -0.70600
O160        O  0.50090750  0.13297577  0.98674789    -0.70800
V161        V  0.54235076  0.19855812  0.95029158     1.35200
V162        V  0.53870575  0.13629294  0.94267635     1.35200
C163        C  0.49452670  0.16409597  0.00848626     0.78600
C164        C  0.58472123  0.17209483  0.88335072     0.78700
C165        C  0.47817899  0.17746298  0.90266737     0.78600
C166        C  0.60301037  0.15850846  0.98986567     0.78500
O167        O  0.58483192  0.51138220  0.71852249    -0.70600
O168        O  0.53013739  0.41193639  0.71786859    -0.70800
O169        O  0.60786406  0.43404542  0.71233805    -0.70700
O170        O  0.50839805  0.48897764  0.72467025    -0.70700
O171        O  0.50561504  0.49930466  0.66015452    -0.70600
O172        O  0.59890860  0.42972859  0.64755527    -0.70700
O173        O  0.51733674  0.41820566  0.65418381    -0.70600
O174        O  0.58615310  0.51117282  0.65291718    -0.70800
V175        V  0.55775509  0.46150742  0.71696864     1.35200
V176        V  0.55220992  0.46447970  0.65455150     1.35200
C177        C  0.59527671  0.52823258  0.68598765     0.78600
C178        C  0.51214157  0.39902762  0.68686278     0.78700
C179        C  0.61983678  0.42097323  0.67837539     0.78600
C180        C  0.49105354  0.50557505  0.69530811     0.78500
C181        C  0.72189476  0.18061840  0.61861117     0.87700
C182        C  0.70143105  0.14993345  0.64663098    -0.52600
C183        C  0.72671910  0.12991087  0.67222309     0.10600
C184        C  0.77182479  0.14052052  0.66513159     0.21500
C185        C  0.74624939  0.20754143  0.64660110    -0.53300
C186        C  0.77284190  0.18745505  0.67139097     0.10700
C187        C  0.75318936  0.15456024  0.59554977    -0.52800
C188        C  0.77909522  0.13325275  0.61919292     0.11300
H189        H  0.66958294  0.14234111  0.64486220     0.15800
H190        H  0.79309237  0.12283096  0.68387977     0.01500
H191        H  0.74187550  0.24010544  0.64777619     0.16100
H192        H  0.75167094  0.14896929  0.56322324     0.15900
C193        C  0.73149013  0.09813593  0.22484228     0.87700
C194        C  0.70389910  0.12538380  0.25156004    -0.52600
C195        C  0.72294200  0.15587214  0.27134853     0.10600
C196        C  0.76889035  0.15607314  0.26306308     0.21500
C197        C  0.75452032  0.12640589  0.19727179    -0.53300
C198        C  0.77261144  0.15887255  0.21560471     0.10700
C199        C  0.76388048  0.08301370  0.25377178    -0.52800
C200        C  0.78317030  0.11256848  0.27472256     0.11300
H201        H  0.67174362  0.11963288  0.25592689     0.15800
H202        H  0.78504956  0.17953289  0.28032050     0.01500
H203        H  0.76001640  0.11719134  0.16657383     0.16100
H204        H  0.76659636  0.05194531  0.26337555     0.15900
C205        C  0.33298642  0.10776645  0.61390661     0.87700
C206        C  0.36690502  0.09197694  0.64061432    -0.52600
C207        C  0.38875305  0.12088262  0.65943364     0.10600
C208        C  0.37478230  0.16487228  0.64919239     0.21500
C209        C  0.30813114  0.13557275  0.64162329    -0.53300
C210        C  0.32816431  0.16726615  0.65951778     0.10700
C211        C  0.35531221  0.13597258  0.58469989    -0.52800
C212        C  0.37698703  0.16649419  0.60221209     0.11300
H213        H  0.37681905  0.06071078  0.64144127     0.15800
H214        H  0.39343660  0.18717982  0.66495019     0.01500
H215        H  0.27812939  0.12700933  0.65034162     0.16100
H216        H  0.35606788  0.12982189  0.55248641     0.15900
C217        C  0.32466994  0.12703884  0.29238235     0.87700
C218        C  0.35699062  0.15456557  0.31021267    -0.52600
C219        C  0.37978371  0.17444007  0.28218767     0.10600
C220        C  0.36894107  0.16349177  0.23793587     0.21500
C221        C  0.30119874  0.15498265  0.26524021    -0.53300
C222        C  0.32173344  0.17332235  0.23358559     0.10700
C223        C  0.34837817  0.09874526  0.26398972    -0.52800
C224        C  0.37311444  0.11699639  0.23690005     0.11300
H225        H  0.36445028  0.15625641  0.34190516     0.15800
H226        H  0.39126021  0.17576499  0.21794612     0.01500
H227        H  0.26971874  0.15849839  0.27231908     0.16100
H228        H  0.35043752  0.06638174  0.26935196     0.15900
O229        O  0.59786130  0.25158163  0.40021997    -0.70600
O230        O  0.51345239  0.25648021  0.48108737    -0.70800
O231        O  0.59562467  0.25670071  0.48173952    -0.70700
O232        O  0.51617845  0.25216793  0.39933013    -0.70700
O233        O  0.52343510  0.18683769  0.39707490    -0.70600
O234        O  0.58934217  0.19193076  0.49028537    -0.70700
O235        O  0.50925486  0.19106531  0.47734155    -0.70600
O236        O  0.60326289  0.18694931  0.41060229    -0.70800
V237        V  0.55578489  0.25322723  0.44069806     1.35200
V238        V  0.55626547  0.19041014  0.44381864     1.35200
C239        C  0.61536193  0.21806874  0.39245471     0.78600
C240        C  0.49628057  0.22412531  0.49202134     0.78700
C241        C  0.60507647  0.22501008  0.50069029     0.78600
C242        C  0.50767702  0.21872152  0.38297358     0.78500
C243        C  0.78191155  0.79506079  0.27762544     0.87700
C244        C  0.75384405  0.77097313  0.30537777    -0.52600
C245        C  0.73029884  0.74342761  0.28640046     0.10600
C246        C  0.73716533  0.74195559  0.23980342     0.21500
C247        C  0.80605696  0.76312108  0.25387016    -0.53300
C248        C  0.78397685  0.73432787  0.23320471     0.10700
C249        C  0.75274337  0.81332534  0.24660009    -0.52800
C250        C  0.72953645  0.78612708  0.22630644     0.11300
H251        H  0.75064723  0.77729235  0.33753746     0.15800
H252        H  0.71689564  0.72064334  0.22431447     0.01500
H253        H  0.83824377  0.76671693  0.25168617     0.16100
H254        H  0.74638267  0.84524755  0.24399865     0.15900
C255        C  0.38253889  0.70831678  0.28002981     0.87700
C256        C  0.35274607  0.73559906  0.30461697    -0.52600
C257        C  0.32815061  0.76023277  0.28213138     0.10600
C258        C  0.33592598  0.75515818  0.23632073     0.21500
C259        C  0.35617668  0.68531993  0.25034069    -0.53300
C260        C  0.33051181  0.70899126  0.22788686     0.10700
C261        C  0.40551056  0.73880459  0.25406140    -0.52800
C262        C  0.38187157  0.76334453  0.23133097     0.11300
H263        H  0.35397815  0.73826116  0.33726320     0.15800
H264        H  0.31712571  0.77526244  0.21734832     0.01500
H265        H  0.35649232  0.65265747  0.24802588     0.16100
H266        H  0.43752598  0.74514953  0.25776836     0.15900
C267        C  0.38420992  0.78983244  0.65953297     0.87700
C268        C  0.35367273  0.80549711  0.62922725    -0.52600
C269        C  0.33152206  0.77677366  0.61077112     0.10600
C270        C  0.34052521  0.73318522  0.62608424     0.21500
C271        C  0.35693148  0.76677711  0.68949195    -0.53300
C272        C  0.33462188  0.73517845  0.67334448     0.10700
C273        C  0.40875805  0.75687614  0.63777103    -0.52800
C274        C  0.38694210  0.72692500  0.62038053     0.11300
H275        H  0.35121717  0.83722670  0.62110503     0.15800
H276        H  0.32198305  0.71098897  0.60972840     0.01500
H277        H  0.35243765  0.77800659  0.71928338     0.16100
H278        H  0.44160342  0.75838996  0.63499897     0.15900
C279        C  0.79399854  0.77891767  0.61288951     0.87700
C280        C  0.76311783  0.80477247  0.63706090    -0.52600
C281        C  0.73652395  0.78378115  0.66057958     0.10600
C282        C  0.74231237  0.73751743  0.65610451     0.21500
C283        C  0.81387314  0.75172697  0.64407989    -0.53300
C284        C  0.78789528  0.72961082  0.66807542     0.10700
C285        C  0.76689203  0.75094603  0.58810551    -0.52800
C286        C  0.73941131  0.72976841  0.61003233     0.11300
H287        H  0.76091886  0.83737558  0.63419066     0.15800
H288        H  0.71856859  0.72011165  0.67054356     0.01500
H289        H  0.84660224  0.74954689  0.64662923     0.16100
H290        H  0.76403790  0.75305805  0.55555297     0.15900
O291        O  0.81229159  0.90558628  0.49130799    -0.70600
O292        O  0.79677348  0.99670661  0.42472975    -0.70800
O293        O  0.80640476  0.91750833  0.41162841    -0.70700
O294        O  0.80189684  0.98458699  0.50407879    -0.70700
O295        O  0.86587735  0.99825571  0.49743697    -0.70600
O296        O  0.87227895  0.92041609  0.41072956    -0.70700
O297        O  0.86180404  0.00176611  0.41600542    -0.70600
O298        O  0.87712039  0.91713180  0.49267445    -0.70800
V299        V  0.80570578  0.95123251  0.45785506     1.35200
V300        V  0.86827265  0.95916112  0.45426071     1.35200
C301        C  0.84704658  0.89673683  0.50452647     0.78600
C302        C  0.82635996  0.01445224  0.40820573     0.78700
C303        C  0.83979487  0.90675428  0.39580643     0.78600
C304        C  0.83233860  0.00401828  0.51591299     0.78500
O305        O  0.60556938  0.91165552  0.67835566    -0.70600
O306        O  0.54067557  0.00646169  0.67386559    -0.70800
O307        O  0.61983746  0.99111448  0.68495347    -0.70700
O308        O  0.52675598  0.92679786  0.66829789    -0.70700
O309        O  0.52021870  0.91857907  0.73292263    -0.70600
O310        O  0.60556628  0.99405841  0.74918780    -0.70700
O311        O  0.52478009  0.00029822  0.73725514    -0.70600
O312        O  0.60135453  0.91220399  0.74394167    -0.70800
V313        V  0.57301561  0.95897660  0.67767033     1.35200
V314        V  0.56319917  0.95630044  0.73981828     1.35200
C315        C  0.61539743  0.89627365  0.71164882     0.78600
C316        C  0.52047498  0.01904291  0.70414922     0.78700
C317        C  0.62753192  0.00494458  0.71970516     0.78600
C318        C  0.50837339  0.91032559  0.69756496     0.78500
O319        O  0.30606571  0.98940675  0.41010432    -0.70600
O320        O  0.31098400  0.89225049  0.46912425    -0.70800
O321        O  0.30730045  0.91014144  0.39084682    -0.70700
O322        O  0.30966824  0.97121476  0.48836148    -0.70700
O323        O  0.24409559  0.97848542  0.48621854    -0.70600
O324        O  0.24263400  0.90096595  0.39993134    -0.70700
O325        O  0.24609892  0.89640218  0.48077943    -0.70600
O326        O  0.24066218  0.98323362  0.40512442    -0.70800
V327        V  0.30731018  0.94077261  0.43960978     1.35200
V328        V  0.24429145  0.93982328  0.44288484     1.35200
C329        C  0.27270042  0.00244982  0.39679039     0.78600
C330        C  0.27970546  0.87832740  0.48621507     0.78700
C331        C  0.27507799  0.89254121  0.38064301     0.78600
C332        C  0.27749219  0.98710751  0.50266287     0.78500
O333        O  0.52028379  0.98708089  0.22749606    -0.70600
O334        O  0.58448352  0.89254262  0.21524646    -0.70800
O335        O  0.59938291  0.97132029  0.21601384    -0.70700
O336        O  0.50540976  0.90812779  0.22671460    -0.70700
O337        O  0.50065982  0.90446788  0.16146876    -0.70600
O338        O  0.58705437  0.97995739  0.15219399    -0.70700
O339        O  0.58250682  0.89884022  0.14995719    -0.70600
O340        O  0.50583102  0.98609723  0.16379213    -0.70800
V341        V  0.55215546  0.93988025  0.22007353     1.35200
V342        V  0.54404786  0.94221374  0.15783489     1.35200
C343        C  0.50078691  0.00210043  0.19843446     0.78600
C344        C  0.59634225  0.88083717  0.18069784     0.78700
C345        C  0.60888483  0.98694778  0.18260694     0.78600
C346        C  0.48760491  0.89432825  0.19608352     0.78500
O347        O  0.58231880  0.71978420  0.49346451    -0.70600
O348        O  0.50368014  0.70242807  0.41244272    -0.70800
O349        O  0.50297506  0.70255599  0.49298184    -0.70700
O350        O  0.58265737  0.72042176  0.41246421    -0.70700
O351        O  0.59878663  0.65674694  0.41125012    -0.70600
O352        O  0.51746604  0.63833542  0.49337818    -0.70700
O353        O  0.51868749  0.63829787  0.41135777    -0.70600
O354        O  0.59772839  0.65598518  0.49317426    -0.70800
V355        V  0.54327513  0.70990838  0.45288230     1.35200
V356        V  0.55787263  0.64843226  0.45232302     1.35200
C357        C  0.60376261  0.69110876  0.50713152     0.78600
C358        C  0.49783730  0.66755274  0.39805779     0.78700
C359        C  0.49625878  0.66782228  0.50676349     0.78600
C360        C  0.60423438  0.69214447  0.39766920     0.78500
C361        C  0.87276070  0.29879395  0.68253516     0.87700
C362        C  0.84137926  0.31915436  0.65457516    -0.52600
C363        C  0.81889909  0.29336162  0.63165961     0.10600
C364        C  0.83071343  0.24856138  0.63847063     0.21500
C365        C  0.84814866  0.26820926  0.70743817    -0.53300
C366        C  0.82497598  0.24186445  0.68510829     0.10700
C367        C  0.89816033  0.27284142  0.65304568    -0.52800
C368        C  0.87686545  0.24666105  0.63017551     0.11300
H369        H  0.83995661  0.35125359  0.64906719     0.15800
H370        H  0.81465120  0.22739607  0.61847742     0.01500
H371        H  0.84846863  0.26784424  0.74015562     0.16100
H372        H  0.93041450  0.27743629  0.64782881     0.15900
C373        C  0.80814410  0.27833024  0.27019076     0.87700
C374        C  0.83910581  0.30113774  0.24403955    -0.52600
C375        C  0.86611077  0.27722905  0.22354366     0.10600
C376        C  0.85913469  0.23161149  0.23009304     0.21500
C377        C  0.78745463  0.24844714  0.24180706    -0.53300
C378        C  0.81346829  0.22383780  0.21967737     0.10700
C379        C  0.83555570  0.25194629  0.29667421    -0.52800
C380        C  0.86118904  0.22609574  0.27652296     0.11300
H381        H  0.84384054  0.33345206  0.24611588     0.15800
H382        H  0.88174108  0.21355511  0.21290788     0.01500
H383        H  0.75465790  0.24642247  0.23979374     0.16100
H384        H  0.83663826  0.25553775  0.32924332     0.15900
C385        C  0.89077202  0.65990381  0.27762159     0.87700
C386        C  0.90573879  0.63051315  0.24484547    -0.52600
C387        C  0.87635976  0.61137606  0.22389033     0.10600
C388        C  0.83280479  0.62512905  0.23680266     0.21500
C389        C  0.86526589  0.68954060  0.25352569    -0.53300
C390        C  0.83294821  0.67299894  0.23293491     0.10700
C391        C  0.86005334  0.63697792  0.30341964    -0.52800
C392        C  0.83091166  0.61684080  0.28285900     0.11300
H393        H  0.93777844  0.62366844  0.23996355     0.15800
H394        H  0.80943525  0.60874384  0.21970096     0.01500
H395        H  0.87660948  0.71909099  0.24761010     0.16100
H396        H  0.86447289  0.63252232  0.33563462     0.15900
C397        C  0.82549400  0.60896468  0.62099453     0.87700
C398        C  0.85412192  0.58829018  0.65142002    -0.52600
C399        C  0.87878574  0.61377958  0.67222371     0.10600
C400        C  0.87329135  0.65836043  0.66006985     0.21500
C401        C  0.80283939  0.64156991  0.64578718    -0.53300
C402        C  0.82718420  0.66701622  0.66776650     0.10700
C403        C  0.85475425  0.63247934  0.59416525    -0.52800
C404        C  0.87972423  0.65793410  0.61383859     0.11300
H405        H  0.85831091  0.55591324  0.65364807     0.15800
H406        H  0.89452259  0.67941273  0.67464113     0.01500
H407        H  0.77019450  0.64425085  0.64691690     0.16100
H408        H  0.85931081  0.62574393  0.56222838     0.15900
O409        O  0.10688228  0.73963870  0.41586834    -0.70600
O410        O  0.02088195  0.72596303  0.49265165    -0.70800
O411        O  0.10119466  0.73501865  0.49806115    -0.70700
O412        O  0.02525178  0.73003209  0.41080163    -0.70700
O413        O  0.03869666  0.66604316  0.40563068    -0.70600
O414        O  0.10532156  0.66946904  0.49644078    -0.70700
O415        O  0.02697708  0.66101092  0.48544396    -0.70600
O416        O  0.11829349  0.67485701  0.41707812    -0.70800
V417        V  0.06381963  0.73168852  0.45411529     1.35200
V418        V  0.07215701  0.66925981  0.45097649     1.35200
C419        C  0.12779546  0.70934305  0.40420266     0.78600
C420        C  0.00989465  0.69087062  0.50274600     0.78700
C421        C  0.11379104  0.70230581  0.51358368     0.78600
C422        C  0.01894299  0.69638645  0.39348349     0.78500
O423        O  0.10202837  0.49752770  0.69888311    -0.70600
O424        O  0.01711890  0.42058689  0.69453798    -0.70800
O425        O  0.02141264  0.50142826  0.69619460    -0.70700
O426        O  0.09975203  0.41663649  0.69668518    -0.70700
O427        O  0.09751961  0.41516184  0.76229984    -0.70600
O428        O  0.01716005  0.49995830  0.76176165    -0.70700
O429        O  0.01499190  0.41862707  0.76015779    -0.70600
O430        O  0.09924452  0.49688285  0.76455212    -0.70800
V431        V  0.06001403  0.45878065  0.69792660     1.35200
V432        V  0.05733266  0.45760146  0.76097771     1.35200
C433        C  0.11457498  0.51073873  0.73236183     0.78600
C434        C  0.00086378  0.40731727  0.72660310     0.78700
C435        C  0.00606845  0.51526795  0.72858588     0.78600
C436        C  0.11291020  0.40214549  0.72935982     0.78500
O437        O  0.99920629  0.47577682  0.14508910    -0.70600
O438        O  0.09170092  0.40485613  0.14970788    -0.70800
O439        O  0.00920802  0.39474753  0.15112278    -0.70700
O440        O  0.08125172  0.48426568  0.14355734    -0.70700
O441        O  0.07353547  0.49420776  0.20820110    -0.70600
O442        O  0.01603796  0.39589814  0.21623492    -0.70700
O443        O  0.09494100  0.41723125  0.21402873    -0.70600
O444        O  0.99459232  0.47372376  0.21057151    -0.70800
V445        V  0.04511909  0.43987023  0.14835668     1.35200
V446        V  0.04470402  0.44506066  0.21102018     1.35200
C447        C  0.98061967  0.48602418  0.17739109     0.78600
C448        C  0.11095829  0.40191109  0.18257817     0.78700
C449        C  0.00063488  0.37974028  0.18531482     0.78600
C450        C  0.08978032  0.50417488  0.17501296     0.78500
O451        O  0.99318608  0.21653075  0.39831362    -0.70600
O452        O  0.07419671  0.22836869  0.47818848    -0.70800
O453        O  0.07323749  0.21889265  0.39786173    -0.70700
O454        O  0.99323270  0.22753121  0.47837787    -0.70700
O455        O  0.99421828  0.16282665  0.48816890    -0.70600
O456        O  0.07627965  0.15364191  0.40463310    -0.70700
O457        O  0.07685712  0.16354385  0.48656246    -0.70600
O458        O  0.99446096  0.15143242  0.40666251    -0.70800
V459        V  0.03357409  0.22137315  0.43853476     1.35200
V460        V  0.03548817  0.15891798  0.44645455     1.35200
C461        C  0.98048244  0.18197177  0.38843005     0.78600
C462        C  0.08944548  0.19827521  0.49628809     0.78700
C463        C  0.08722784  0.18531905  0.38617047     0.78600
C464        C  0.97935883  0.19746898  0.49683740     0.78500
O465        O  0.79514238  0.39793454  0.40312224    -0.70600
O466        O  0.80559171  0.46894839  0.49305690    -0.70800
O467        O  0.79357144  0.38945839  0.48323623    -0.70700
O468        O  0.80865972  0.47631455  0.41231984    -0.70700
O469        O  0.74379385  0.48316082  0.40449114    -0.70600
O470        O  0.72983964  0.40564409  0.49051529    -0.70700
O471        O  0.74220183  0.48636077  0.48660665    -0.70600
O472        O  0.72942104  0.40329069  0.40825946    -0.70800
V473        V  0.79949211  0.43342759  0.44798502     1.35200
V474        V  0.73723426  0.44440867  0.44759445     1.35200
C475        C  0.76033387  0.38814911  0.39094272     0.78600
C476        C  0.77570181  0.49083875  0.50416283     0.78700
C477        C  0.75996298  0.38356937  0.50051131     0.78600
C478        C  0.77964239  0.49267909  0.39377842     0.78500
C479        C  0.21367175  0.23293279  0.61878079     0.87700
C480        C  0.24311140  0.26118263  0.59752879    -0.52600
C481        C  0.26935579  0.28057619  0.62182660     0.10600
C482        C  0.26523915  0.26877536  0.66691854     0.21500
C483        C  0.24180713  0.20344522  0.64141337    -0.53300
C484        C  0.27059352  0.22126350  0.66642316     0.10700
C485        C  0.19394804  0.25739719  0.65297068    -0.52800
C486        C  0.21964245  0.27695549  0.67809327     0.11300
H487        H  0.24165241  0.26739568  0.56531862     0.15800
H488        H  0.28609677  0.28570952  0.68664504     0.01500
H489        H  0.23739940  0.17172145  0.63877101     0.16100
H490        H  0.16118922  0.26124190  0.65518105     0.15900
C491        C  0.21429890  0.61378887  0.22071720     0.87700
C492        C  0.19733395  0.64350107  0.25267336    -0.52600
C493        C  0.22533308  0.66392840  0.27428573     0.10600
C494        C  0.26911819  0.65126712  0.26339749     0.21500
C495        C  0.24422413  0.63842148  0.19512475    -0.53300
C496        C  0.27331108  0.65858062  0.21688076     0.10700
C497        C  0.24143553  0.58568345  0.24568489    -0.52800
C498        C  0.27005274  0.60482944  0.26800873     0.11300
H499        H  0.16585768  0.64500193  0.26207987     0.15800
H500        H  0.29078602  0.66672455  0.28326666     0.01500
H501        H  0.24208849  0.64057221  0.16252995     0.16100
H502        H  0.23577040  0.55355535  0.24881494     0.15900
C503        C  0.28690624  0.61606621  0.62524278     0.87700
C504        C  0.25247090  0.63930192  0.60465527    -0.52600
C505        C  0.22936765  0.66291386  0.62936217     0.10600
C506        C  0.24163770  0.66074990  0.67402073     0.21500
C507        C  0.31057124  0.64798778  0.64884465    -0.53300
C508        C  0.28741994  0.67269509  0.67391367     0.10700
C509        C  0.26410541  0.59222144  0.65775060    -0.52800
C510        C  0.24048164  0.61481732  0.68375208     0.11300
H511        H  0.24408041  0.63499565  0.57329716     0.15800
H512        H  0.22184822  0.67919729  0.69419945     0.01500
H513        H  0.34291126  0.65152401  0.64525359     0.16100
H514        H  0.26223316  0.55957104  0.65675894     0.15900
C515        C  0.20435222  0.23339693  0.26890053     0.87700
C516        C  0.19255999  0.26975577  0.24359025    -0.52600
C517        C  0.22427104  0.28818247  0.22480818     0.10600
C518        C  0.26650618  0.26847012  0.23418827     0.21500
C519        C  0.22754737  0.20670396  0.23938668    -0.53300
C520        C  0.26238036  0.22235092  0.22234348     0.10700
C521        C  0.23540115  0.25062516  0.29817053    -0.52800
C522        C  0.26784264  0.26961169  0.28111948     0.11300
H523        H  0.16245191  0.28297961  0.24252834     0.15800
H524        H  0.29254769  0.28376927  0.21968107     0.01500
H525        H  0.21576481  0.17713897  0.23464479     0.16100
H526        H  0.22877303  0.25196416  0.33034812     0.15900
O527        O  0.35691998  0.48435218  0.48757797    -0.70600
O528        O  0.35160681  0.40216533  0.40672469    -0.70800
O529        O  0.35220981  0.48427259  0.40585183    -0.70700
O530        O  0.35464224  0.40336331  0.48965390    -0.70700
O531        O  0.28893737  0.40796068  0.49300368    -0.70600
O532        O  0.28645877  0.48286559  0.40938045    -0.70700
O533        O  0.28580692  0.40249627  0.41219111    -0.70600
O534        O  0.29099193  0.48789079  0.48948642    -0.70800
V535        V  0.35276535  0.44337305  0.44732117     1.35200
V536        V  0.28950936  0.44512504  0.45082246     1.35200
C537        C  0.32487138  0.50000242  0.50221847     0.78600
C538        C  0.31779811  0.38842598  0.39568022     0.78700
C539        C  0.31802328  0.49796460  0.39440877     0.78600
C540        C  0.32149007  0.39420253  0.50721526     0.78500
C541        C  0.29543801  0.19503935  0.19914761    -0.01300
C542        C  0.79705709  0.19074739  0.19049360    -0.01300
C543        C  0.30189447  0.68962844  0.19650794    -0.01300
C544        C  0.30477322  0.19678913  0.68964777    -0.01300
C545        C  0.79529123  0.21088552  0.70502401    -0.01300
C546        C  0.80473172  0.70018346  0.20594801    -0.01300
C547        C  0.30611690  0.70717813  0.69983754    -0.01300
C548        C  0.22935739  0.10036436  0.16497047     0.87700
C549        C  0.26456566  0.08222312  0.14067784    -0.52600
C550        C  0.28763149  0.10938652  0.12015946     0.10600
C551        C  0.27310095  0.15392086  0.12640968     0.21500
C552        C  0.25117003  0.12978851  0.19233536    -0.53300
C553        C  0.27321974  0.16032880  0.17397260     0.10700
C554        C  0.20552217  0.12668322  0.13586033    -0.52800
C555        C  0.22757692  0.15316956  0.11386920     0.11300
H556        H  0.26937691  0.04977933  0.13801125     0.15800
H557        H  0.29125379  0.17545900  0.10850011     0.01500
H558        H  0.25056542  0.12393123  0.22367403     0.16100
H559        H  0.17365086  0.12132707  0.12965634     0.15900
C560        C  0.28934666  0.11339119  0.77238037     0.87700
C561        C  0.25962857  0.09106985  0.74489466    -0.52600
C562        C  0.23435803  0.11517825  0.72319090     0.10600
C563        C  0.24099733  0.16089388  0.73077890     0.21500
C564        C  0.31155708  0.14254103  0.74400807    -0.53300
C565        C  0.28674972  0.16793762  0.72191897     0.10700
C566        C  0.26098537  0.14067999  0.79802748    -0.52800
C567        C  0.23645735  0.16618302  0.77687023     0.11300
H568        H  0.25429886  0.05883515  0.74668999     0.15800
H569        H  0.21996237  0.18047643  0.71376746     0.01500
H570        H  0.34419500  0.14275000  0.74065011     0.16100
H571        H  0.25804032  0.13780970  0.83055814     0.15900
C572        C  0.88989927  0.11924260  0.17262527     0.87700
C573        C  0.91177470  0.14846020  0.14433786    -0.52600
C574        C  0.88739975  0.16931621  0.11887734     0.10600
C575        C  0.84173978  0.16001260  0.12492000     0.21500
C576        C  0.85823938  0.14451162  0.19515135    -0.53300
C577        C  0.83276773  0.16677607  0.17105729     0.10700
C578        C  0.86517111  0.09301010  0.14362817    -0.52800
C579        C  0.83900419  0.11365657  0.11936085     0.11300
H580        H  0.94415014  0.14712583  0.13838948     0.15800
H581        H  0.82234875  0.17747211  0.10409043     0.01500
H582        H  0.85559394  0.14431205  0.22787743     0.16100
H583        H  0.86889773  0.06040065  0.14170572     0.15900
C584        C  0.21322989  0.76555970  0.17786477     0.87700
C585        C  0.19559376  0.73574527  0.14717409    -0.52600
C586        C  0.22319231  0.71611333  0.12330926     0.10600
C587        C  0.26717399  0.72951963  0.13087623     0.21500
C588        C  0.24501923  0.74149840  0.20100446    -0.53300
C589        C  0.27340970  0.72162381  0.17725323     0.10700
C590        C  0.23761866  0.79434607  0.15127637    -0.52800
C591        C  0.26537958  0.77631196  0.12611483     0.11300
H592        H  0.16375069  0.73323860  0.14037929     0.15800
H593        H  0.28902304  0.71446647  0.10991581     0.01500
H594        H  0.24403327  0.73876315  0.23367156     0.16100
H595        H  0.23054066  0.82644594  0.14944911     0.15900
C596        C  0.89032442  0.71851156  0.12413983     0.87700
C597        C  0.91122993  0.74720237  0.15400741    -0.52600
C598        C  0.88596314  0.77075298  0.17732003     0.10600
C599        C  0.84067433  0.76515335  0.16652163     0.21500
C600        C  0.85940756  0.69527216  0.15006923    -0.53300
C601        C  0.83324539  0.71906814  0.17320346     0.10700
C602        C  0.86461738  0.74755936  0.09879223    -0.52800
C603        C  0.83862787  0.77171168  0.12030415     0.11300
H604        H  0.94367909  0.75168651  0.15459577     0.15800
H605        H  0.81959121  0.78590513  0.18266456     0.01500
H606        H  0.85916944  0.66252350  0.15121811     0.16100
H607        H  0.86855279  0.75097832  0.06636454     0.15900
O608        O  0.99588409  0.90251799  0.20350337    -0.70600
O609        O  0.08864908  0.96586560  0.18730023    -0.70800
O610        O  0.07551905  0.88734233  0.19777911    -0.70700
O611        O  0.00933413  0.98114582  0.19432611    -0.70700
O612        O  0.00976873  0.98422687  0.26003909    -0.70600
O613        O  0.08755533  0.89915157  0.26126063    -0.70700
O614        O  0.09147430  0.97952450  0.25132096    -0.70600
O615        O  0.00564713  0.90300608  0.26836735    -0.70800
V616        V  0.04246897  0.93435479  0.19701157     1.35200
V617        V  0.04839315  0.94137647  0.25927136     1.35200
C618        C  0.98571402  0.89051027  0.23815017     0.78600
C619        C  0.10550367  0.98452996  0.21577834     0.78700
C620        C  0.09406299  0.87835987  0.22978472     0.78600
C621        C  0.99749900  0.99789857  0.22679596     0.78500
C622        C  0.21678159  0.78576366  0.71399640     0.87700
C623        C  0.24101032  0.80878115  0.74606141    -0.52600
C624        C  0.26301556  0.78504755  0.77121312     0.10600
C625        C  0.25910541  0.73955158  0.76226494     0.21500
C626        C  0.24819125  0.75861091  0.69210593    -0.53300
C627        C  0.27134127  0.73458245  0.71691760     0.10700
C628        C  0.19139675  0.75692444  0.73994747    -0.52800
C629        C  0.21291453  0.73219148  0.76486143     0.11300
H630        H  0.23751672  0.84092320  0.75200775     0.15800
H631        H  0.27633471  0.72020107  0.78308111     0.01500
H632        H  0.25234513  0.75854605  0.65971775     0.16100
H633        H  0.15868565  0.75978488  0.74236890     0.15900
O634        O  0.28030919  0.91719104  0.99277765    -0.70600
O635        O  0.29575438  0.99015142  0.90587401    -0.70800
O636        O  0.27900230  0.91109732  0.91312430    -0.70700
O637        O  0.29700939  0.99672271  0.98588600    -0.70700
O638        O  0.36133418  0.98163036  0.98790262    -0.70600
O639        O  0.34368354  0.89798995  0.91050249    -0.70700
O640        O  0.36069111  0.97802103  0.90625584    -0.70600
O641        O  0.34430639  0.90120558  0.99140767    -0.70800
V642        V  0.28941526  0.95358174  0.94951058     1.35200
V643        V  0.35140812  0.94004866  0.94906520     1.35200
C644        C  0.30894952  0.89500434  0.00544491     0.78600
C645        C  0.33070604  0.99704419  0.89157491     0.78700
C646        C  0.30797896  0.88954698  0.89976558     0.78600
C647        C  0.33197596  0.00418470  0.99895347     0.78500
C648        C  0.82619172  0.12778162  0.78494667     0.87700
C649        C  0.84944982  0.16025333  0.80822688    -0.52600
C650        C  0.87128615  0.18643018  0.78526163     0.10600
C651        C  0.86565183  0.17905588  0.73940736     0.21500
C652        C  0.79872647  0.15236718  0.75730145    -0.53300
C653        C  0.81843353  0.18079573  0.73332063     0.10700
C654        C  0.85614967  0.10830386  0.75559642    -0.52800
C655        C  0.87756705  0.13415698  0.73265760     0.11300
H656        H  0.85134672  0.15977682  0.84096536     0.15800
H657        H  0.88377551  0.19930904  0.72002920     0.01500
H658        H  0.76718602  0.14602681  0.75621565     0.16100
H659        H  0.86271764  0.07597619  0.75548943     0.15900
O660        O  0.01392342  0.18599677  0.89357859    -0.70600
O661        O  0.09755994  0.16626002  0.96935989    -0.70800
O662        O  0.01556035  0.17122351  0.97278117    -0.70700
O663        O  0.09432051  0.18094975  0.89002864    -0.70700
O664        O  0.09961384  0.24520451  0.90282678    -0.70600
O665        O  0.01791174  0.23554937  0.98503027    -0.70700
O666        O  0.10086334  0.23028756  0.98271104    -0.70600
O667        O  0.01747369  0.25057285  0.90521723    -0.70800
V668        V  0.05543377  0.17743772  0.93190528     1.35200
V669        V  0.05892665  0.23925194  0.94383371     1.35200
C670        C  0.00171630  0.22146873  0.88618530     0.78600
C671        C  0.11443418  0.19475697  0.98834849     0.78700
C672        C  0.00181758  0.20162871  0.99193824     0.78600
C673        C  0.11026448  0.21447882  0.88220659     0.78500
C674        C  0.89950520  0.72689307  0.76924032     0.87700
C675        C  0.87151183  0.75056504  0.79786087    -0.52600
C676        C  0.84061188  0.77146145  0.78056023     0.10600
C677        C  0.84129883  0.76754116  0.73374558     0.21500
C678        C  0.87094913  0.70039489  0.74469910    -0.53300
C679        C  0.84000643  0.72066893  0.72476966     0.10700
C680        C  0.91449081  0.75727240  0.73802611    -0.52800
C681        C  0.88501970  0.78017624  0.72081522     0.11300
H682        H  0.87760801  0.75219941  0.83002131     0.15800
H683        H  0.81702394  0.78559164  0.71926487     0.01500
H684        H  0.87764219  0.66895954  0.74056123     0.16100
H685        H  0.94650220  0.76295121  0.73251934     0.15900
O686        O  0.10618022  0.69819714  0.99165176    -0.70600
O687        O  0.02178291  0.70746187  0.91689768    -0.70800
O688        O  0.02492528  0.69939155  0.99744893    -0.70700
O689        O  0.10209581  0.70578225  0.91232275    -0.70700
O690        O  0.10368901  0.64021248  0.90718661    -0.70600
O691        O  0.02033493  0.63453503  0.98816909    -0.70700
O692        O  0.02264501  0.64283057  0.90584791    -0.70600
O693        O  0.10330931  0.63265676  0.98849739    -0.70800
V694        V  0.06349810  0.70126572  0.95461173     1.35200
V695        V  0.06235948  0.63856714  0.94785952     1.35200
C696        C  0.11996671  0.66429548  0.00216491     0.78600
C697        C  0.01038366  0.67781497  0.89589630     0.78700
C698        C  0.00898283  0.66620124  0.00699997     0.78600
C699        C  0.11603846  0.67424907  0.89539830     0.78500
O700        O  0.75577056  0.98399752  0.99252847    -0.70600
O701        O  0.75318792  0.90333067  0.90937639    -0.70800
O702        O  0.75499392  0.90206616  0.99215442    -0.70700
O703        O  0.75496098  0.98550747  0.91102256    -0.70700
O704        O  0.81982109  0.97556412  0.90481009    -0.70600
O705        O  0.82050539  0.90770950  0.99488557    -0.70700
O706        O  0.81859535  0.89619984  0.91437820    -0.70600
O707        O  0.82114162  0.98765455  0.98415858    -0.70800
V708        V  0.75559816  0.94345233  0.95119602     1.35200
V709        V  0.81868607  0.94165135  0.94960508     1.35200
C710        C  0.78896379  0.00085162  0.00094884     0.78600
C711        C  0.78577057  0.88589539  0.89799458     0.78700
C712        C  0.78836150  0.89266076  0.00888339     0.78600
C713        C  0.78855059  0.99502405  0.89467231     0.78500
O714        O  0.01154286  0.00123791  0.72044930    -0.70600
O715        O  0.08428832  0.91260688  0.70808955    -0.70800
O716        O  0.09093789  0.99251189  0.71606109    -0.70700
O717        O  0.00315946  0.92148429  0.71377174    -0.70700
O718        O  0.00057493  0.92463550  0.64837164    -0.70600
O719        O  0.08760410  0.00142057  0.65125520    -0.70700
O720        O  0.08329567  0.91992447  0.64285299    -0.70600
O721        O  0.00655151  0.00603384  0.65529605    -0.70800
V722        V  0.04738364  0.95681431  0.71313809     1.35200
V723        V  0.04456243  0.96261425  0.65049056     1.35200
C724        C  0.99760338  0.01952501  0.69008823     0.78600
C725        C  0.09735361  0.90218871  0.67347748     0.78700
C726        C  0.10275183  0.01103510  0.68506588     0.78600
C727        C  0.98610602  0.91131368  0.68141919     0.78500
C728        C  0.80771634  0.69846814  0.69766293    -0.01300
C729        C  0.80472730  0.83830466  0.79570017     0.24800
C730        C  0.81377889  0.79816829  0.80663984    -0.23300
C731        C  0.80423388  0.78612813  0.84659071     0.19700
C732        C  0.79079826  0.81424403  0.87563137     0.24700
C733        C  0.78672064  0.85504428  0.86561712    -0.23300
C734        C  0.79200393  0.86665840  0.82513437     0.19600
F735        F  0.78848956  0.90619290  0.81485195    -0.13200
F736        F  0.81273156  0.85148834  0.75785964    -0.15600
F737        F  0.78506608  0.80219028  0.91441741    -0.15600
F738        F  0.81169855  0.74775243  0.85874030    -0.13200
C739        C  0.96125606  0.73640104  0.81219008     0.24800
C740        C  0.93400319  0.70873910  0.79462994    -0.23300
C741        C  0.93510051  0.66829072  0.80879270     0.19700
C742        C  0.96093708  0.65712573  0.84074852     0.24700
C743        C  0.98569336  0.68604011  0.85940121    -0.23300
C744        C  0.98700212  0.72504896  0.84299040     0.19600
F745        F  0.01256205  0.75344158  0.85766490    -0.13200
F746        F  0.96070615  0.77619636  0.80231427    -0.15600
F747        F  0.96014281  0.61863664  0.85465027    -0.15600
F748        F  0.90966019  0.63993989  0.79427815    -0.13200
C749        C  0.90238027  0.85242058  0.73023741     0.24800
C750        C  0.89791470  0.81954121  0.70363505    -0.23300
C751        C  0.91858466  0.82049106  0.66613405     0.19700
C752        C  0.94449634  0.85262852  0.65629423     0.24700
C753        C  0.95061974  0.88403650  0.68425563    -0.23300
C754        C  0.92704123  0.88487632  0.72001187     0.19600
F755        F  0.93101906  0.91540351  0.74729562    -0.13200
F756        F  0.88866285  0.85027942  0.76890456    -0.15600
F757        F  0.96680468  0.85068253  0.62161531    -0.15600
F758        F  0.91760783  0.78795772  0.64124219    -0.13200
C759        C  0.97610860  0.21725065  0.81576585     0.24800
C760        C  0.96915019  0.22749017  0.85647990    -0.23300
C761        C  0.92929606  0.23517654  0.86978259     0.19700
C762        C  0.89663369  0.22734695  0.84417887     0.24700
C763        C  0.90341819  0.21136948  0.80488931    -0.23300
C764        C  0.94354686  0.21017918  0.78985468     0.19600
F765        F  0.95185797  0.19760790  0.75156573    -0.13200
F766        F  0.01450603  0.21089065  0.80190183    -0.15600
F767        F  0.85830955  0.23159389  0.85921894    -0.15600
F768        F  0.92181353  0.24597560  0.90882997    -0.13200
C769        C  0.84171881  0.07705146  0.83812757     0.24800
C770        C  0.81137823  0.09484937  0.81392285    -0.23300
C771        C  0.77161194  0.07901371  0.81664456     0.19700
C772        C  0.76316418  0.04652314  0.84298067     0.24700
C773        C  0.79412777  0.02963984  0.86687775    -0.23300
C774        C  0.83313678  0.04622407  0.86448886     0.19600
F775        F  0.86398089  0.03279954  0.88803930    -0.13200
F776        F  0.88105568  0.08898722  0.83570316    -0.15600
F777        F  0.72522997  0.03095815  0.84417452    -0.15600
F778        F  0.74126543  0.09321282  0.79324774    -0.13200
C779        C  0.97536112  0.07855655  0.73168841     0.24800
C780        C  0.97197564  0.05595542  0.69583855    -0.23300
C781        C  0.94199653  0.06672561  0.66778217     0.19700
C782        C  0.91326922  0.09681376  0.67759595     0.24700
C783        C  0.91526839  0.11771784  0.71457888    -0.23300
C784        C  0.94705238  0.10862208  0.74117851     0.19600
F785        F  0.94678399  0.12382230  0.77935369    -0.13200
F786        F  0.00430934  0.06954737  0.75924924    -0.15600
F787        F  0.88055313  0.10183380  0.65353008    -0.15600
F788        F  0.93792183  0.04550897  0.63284338    -0.13200
C789        C  0.26102442  0.83820695  0.87146668     0.24800
C790        C  0.29964638  0.85605014  0.87168378    -0.23300
C791        C  0.32837778  0.84457333  0.84212739     0.19700
C792        C  0.31733246  0.81887396  0.81064827     0.24700
C793        C  0.27823620  0.80265772  0.80914761    -0.23300
C794        C  0.25036723  0.81195514  0.84029482     0.19600
F795        F  0.21156786  0.79867956  0.83849284    -0.13200
F796        F  0.23283582  0.84768294  0.90033619    -0.15600
F797        F  0.34344512  0.81372151  0.77947197    -0.15600
F798        F  0.36586711  0.86123329  0.84137138    -0.13200
C799        C  0.20069315  0.85461438  0.68176572     0.24800
C800        C  0.19058794  0.81350803  0.68715820    -0.23300
C801        C  0.15149939  0.80143627  0.67464772     0.19700
C802        C  0.12107937  0.83041102  0.66744667     0.24700
C803        C  0.12996670  0.87162973  0.66986804    -0.23300
C804        C  0.17039837  0.88345833  0.67418204     0.19600
F805        F  0.18006456  0.92325659  0.67387252    -0.13200
F806        F  0.23949401  0.86734237  0.68582909    -0.15600
F807        F  0.08245813  0.81831377  0.66081413    -0.15600
F808        F  0.14188169  0.76170926  0.67203070    -0.13200
C809        C  0.20769645  0.70588548  0.83635604     0.24800
C810        C  0.19189974  0.70819314  0.79694325    -0.23300
C811        C  0.15284590  0.69220435  0.79009203     0.19700
C812        C  0.12943665  0.67741805  0.82204501     0.24700
C813        C  0.14439497  0.67821389  0.86138238    -0.23300
C814        C  0.18403129  0.69110330  0.86810490     0.19600
F815        F  0.19912636  0.69160590  0.90597219    -0.13200
F816        F  0.24453599  0.72101347  0.84557875    -0.15600
F817        F  0.09074624  0.66561366  0.81509775    -0.15600
F818        F  0.13577678  0.69342170  0.75305661    -0.13200
C819        C  0.93950294  0.78958242  0.22797105     0.24800
C820        C  0.90338838  0.79988416  0.20742920    -0.23300
C821        C  0.88896229  0.83993057  0.21084222     0.19700
C822        C  0.91435281  0.87020624  0.22590322     0.24700
C823        C  0.95304339  0.86042705  0.24080745    -0.23300
C824        C  0.96385266  0.81961855  0.24484696     0.19600
F825        F  0.00046631  0.80917724  0.26033080    -0.13200
F826        F  0.95294020  0.75065935  0.22900162    -0.15600
F827        F  0.90282429  0.90947725  0.22226883    -0.15600
F828        F  0.85213840  0.85068348  0.19634520    -0.13200
C829        C  0.77279638  0.82737761  0.04504526     0.24800
C830        C  0.79190701  0.86517056  0.04402385    -0.23300
C831        C  0.82152872  0.87376316  0.07314248     0.19700
C832        C  0.83492329  0.84399101  0.09974320     0.24700
C833        C  0.81732976  0.80557013  0.09974307    -0.23300
C834        C  0.78549799  0.79776940  0.07276331     0.19600
F835        F  0.76936347  0.76027445  0.07081981    -0.13200
F836        F  0.74486071  0.81773208  0.01682460    -0.15600
F837        F  0.86865376  0.85122708  0.12159671    -0.15600
F838        F  0.84006602  0.91025657  0.07359787    -0.13200
C839        C  0.90767757  0.67734606  0.05987828     0.24800
C840        C  0.91980486  0.69214394  0.09809560    -0.23300
C841        C  0.96104008  0.68581661  0.10866948     0.19700
C842        C  0.98986044  0.67391259  0.07942999     0.24700
C843        C  0.97812898  0.66575783  0.03970298    -0.23300
C844        C  0.93663297  0.66481570  0.03080944     0.19600
F845        F  0.92433807  0.65500388  0.99300554    -0.13200
F846        F  0.86803418  0.67795081  0.04939074    -0.15600
F847        F  0.02968754  0.67199954  0.08950565    -0.15600
F848        F  0.97386013  0.69035086  0.14725093    -0.13200
C849        C  0.32978494  0.84526226  0.06027139     0.24800
C850        C  0.30008508  0.86151376  0.03433191    -0.23300
C851        C  0.26079792  0.84504172  0.03572363     0.19700
C852        C  0.25093819  0.81483932  0.06337890     0.24700
C853        C  0.27990677  0.79993884  0.09059441    -0.23300
C854        C  0.31956608  0.81502808  0.08842720     0.19600
F855        F  0.34762482  0.80236375  0.11525366    -0.13200
F856        F  0.36805141  0.86005147  0.05991646    -0.15600
F857        F  0.21208204  0.80155697  0.06510644    -0.15600
F858        F  0.23140486  0.85845204  0.01048809    -0.13200
C859        C  0.14006051  0.77824824  0.20448093     0.24800
C860        C  0.18189010  0.78801337  0.20427417    -0.23300
C861        C  0.19359287  0.82338073  0.22498256     0.19700
C862        C  0.16436778  0.85199692  0.23711201     0.24700
C863        C  0.12329634  0.84503512  0.22933627    -0.23300
C864        C  0.11115966  0.80724501  0.21541165     0.19600
F865        F  0.07117690  0.79898465  0.21087285    -0.13200
F866        F  0.12650879  0.74073333  0.19546698    -0.15600
F867        F  0.17644090  0.88808682  0.25228939    -0.15600
F868        F  0.23341508  0.83220505  0.22947400    -0.13200
C869        C  0.21596241  0.69941905  0.04997339     0.24800
C870        C  0.20827297  0.68947895  0.09034664    -0.23300
C871        C  0.17671634  0.66226352  0.09905368     0.19700
C872        C  0.15037039  0.64915210  0.06893009     0.24700
C873        C  0.15490015  0.66365561  0.02959627    -0.23300
C874        C  0.18898685  0.68725354  0.01998011     0.19600
F875        F  0.19359671  0.70238135  0.98232968    -0.13200
F876        F  0.24628623  0.72507663  0.04016483    -0.15600
F877        F  0.11721358  0.62737370  0.07941956    -0.15600
F878        F  0.16779664  0.65325891  0.13780345    -0.13200
C879        C  0.94597423  0.16012893  0.02171842     0.24800
C880        C  0.96739749  0.19677760  0.02102761    -0.23300
C881        C  0.95629017  0.22726112  0.04915008     0.19700
C882        C  0.92643780  0.21999823  0.07885468     0.24700
C883        C  0.90677107  0.18255487  0.08058941    -0.23300
C884        C  0.91683721  0.15288402  0.05151576     0.19600
F885        F  0.90226835  0.11485829  0.05484499    -0.13200
F886        F  0.95463689  0.12998035  0.99485872    -0.15600
F887        F  0.91942676  0.24808248  0.10818842    -0.15600
F888        F  0.97600717  0.26306290  0.04965096    -0.13200
C889        C  0.90177461  0.05807984  0.21694610     0.24800
C890        C  0.91719362  0.09388240  0.19985645    -0.23300
C891        C  0.95915053  0.10156155  0.20412551     0.19700
C892        C  0.98557148  0.07039505  0.21486663     0.24700
C893        C  0.97019191  0.03265352  0.22523888    -0.23300
C894        C  0.92827988  0.02743309  0.22914438     0.19600
F895        F  0.91312904  0.99156428  0.24155085    -0.13200
F896        F  0.86119414  0.05129988  0.21842243    -0.15600
F897        F  0.02628030  0.07643598  0.21330073    -0.15600
F898        F  0.97501970  0.13870390  0.19801843    -0.13200
C899        C  0.78488228  0.02597941  0.07177032     0.24800
C900        C  0.79097007  0.03410945  0.03068821    -0.23300
C901        C  0.80393189  0.07273322  0.01904423     0.19700
C902        C  0.81402780  0.10168943  0.04838122     0.24700
C903        C  0.81378178  0.09128469  0.08956114    -0.23300
C904        C  0.79621067  0.05427698  0.10099660     0.19600
F905        F  0.79272404  0.04429995  0.14061908    -0.13200
F906        F  0.77157236  0.98917448  0.08367100    -0.15600
F907        F  0.82729205  0.13836966  0.03621734    -0.15600
F908        F  0.80872910  0.08164592  0.97928869    -0.13200
C909        C  0.32246851  0.04381743  0.78829836     0.24800
C910        C  0.31603757  0.08507924  0.79865337    -0.23300
C911        C  0.32807642  0.09725680  0.83784598     0.19700
C912        C  0.33650819  0.06842579  0.86769721     0.24700
C913        C  0.33517613  0.02697779  0.85866054    -0.23300
C914        C  0.33091271  0.01505462  0.81822451     0.19600
F915        F  0.33234400  0.97524342  0.80810998    -0.13200
F916        F  0.31949766  0.03085752  0.74945744    -0.15600
F917        F  0.34334755  0.08097369  0.90610089    -0.15600
F918        F  0.32875694  0.13698215  0.84830999    -0.13200
C919        C  0.21343709  0.20900707  0.83584909     0.24800
C920        C  0.20486500  0.19121515  0.79805079    -0.23300
C921        C  0.16440054  0.19104133  0.78495195     0.19700
C922        C  0.13303125  0.20204118  0.81164362     0.24700
C923        C  0.14170562  0.21601292  0.85068311    -0.23300
C924        C  0.18206729  0.22187847  0.86171663     0.19600
F925        F  0.19106908  0.23525184  0.89942743    -0.13200
F926        F  0.25200491  0.21047423  0.84941411    -0.15600
F927        F  0.09409364  0.19588624  0.80051527    -0.15600
F928        F  0.15452525  0.17662510  0.74794523    -0.13200
C929        C  0.16196809  0.05260998  0.66079621     0.24800
C930        C  0.13254580  0.04371124  0.69032075    -0.23300
C931        C  0.13378502  0.06387938  0.72789604     0.19700
C932        C  0.16577295  0.08918689  0.73719838     0.24700
C933        C  0.19621734  0.09714226  0.70849023    -0.23300
C934        C  0.19380837  0.07894177  0.66993466     0.19600
F935        F  0.22380902  0.08364904  0.64222387    -0.13200
F936        F  0.16179948  0.03347312  0.62440344    -0.15600
F937        F  0.16916285  0.10249779  0.77588461    -0.15600
F938        F  0.10501806  0.05743948  0.75680576    -0.13200
C939        C  0.34031032  0.05941106  0.09682053     0.24800
C940        C  0.31585140  0.09366174  0.08843504    -0.23300
C941        C  0.30766341  0.10292727  0.04802910     0.19700
C942        C  0.31757777  0.07525132  0.01750111     0.24700
C943        C  0.33675364  0.03843641  0.02679901    -0.23300
C944        C  0.35094422  0.03203381  0.06600110     0.19600
F945        F  0.36954006  0.99661078  0.07562618    -0.13200
F946        F  0.34819964  0.04906479  0.13561709    -0.15600
F947        F  0.30409077  0.08225076  0.97954709    -0.15600
F948        F  0.28496124  0.13579881  0.03847420    -0.13200
C949        C  0.18598198  0.03889461  0.15513831     0.24800
C950        C  0.20091836  0.06801405  0.18248043    -0.23300
C951        C  0.18430927  0.06844455  0.22228547     0.19700
C952        C  0.15489091  0.04008463  0.23399319     0.24700
C953        C  0.14009425  0.01169311  0.20610238    -0.23300
C954        C  0.15672219  0.01121879  0.16672390     0.19600
F955        F  0.14384786  0.98462642  0.13829076    -0.13200
F956        F  0.19799189  0.03856575  0.11571610    -0.15600
F957        F  0.13938187  0.04194701  0.27212831    -0.15600
F958        F  0.19331196  0.09777847  0.24934338    -0.13200
C959        C  0.16592677  0.21653223  0.04103532     0.24800
C960        C  0.14916813  0.18618621  0.01623689    -0.23300
C961        C  0.16586383  0.14682522  0.01871964     0.19700
C962        C  0.19526918  0.13742132  0.04755787     0.24700
C963        C  0.20919417  0.16691084  0.07488252    -0.23300
C964        C  0.19571155  0.20681839  0.06978459     0.19600
F965        F  0.20977438  0.23606636  0.09415155    -0.13200
F966        F  0.15228851  0.25529904  0.03892223    -0.15600
F967        F  0.20828033  0.09849361  0.05065995    -0.15600
F968        F  0.15269843  0.11666521  0.99432031    -0.13200
C969        C  0.30983862  0.31626878  0.37655984     0.24800
C970        C  0.31518912  0.35633847  0.36465580    -0.23300
C971        C  0.31384317  0.36581424  0.32335291     0.19700
C972        C  0.30354903  0.33617350  0.29467460     0.24700
C973        C  0.29303298  0.29688202  0.30720070    -0.23300
C974        C  0.29922628  0.28678980  0.34823222     0.19600
F975        F  0.29346645  0.24844291  0.36140026    -0.13200
F976        F  0.31285680  0.30607938  0.41611568    -0.15600
F977        F  0.30089714  0.34712798  0.25536423    -0.15600
F978        F  0.31991449  0.40438792  0.31109882    -0.13200
C979        C  0.32495136  0.55036780  0.60477555     0.24800
C980        C  0.31162563  0.58984795  0.59483585    -0.23300
C981        C  0.31422232  0.60109470  0.55359275     0.19700
C982        C  0.32046367  0.57198201  0.52336492     0.24700
C983        C  0.32657123  0.53151544  0.53361563    -0.23300
C984        C  0.33137386  0.52121558  0.57434093     0.19600
F985        F  0.33981945  0.48241693  0.58470736    -0.13200
F986        F  0.33028223  0.53941965  0.64385243    -0.15600
F987        F  0.31828728  0.58297960  0.48395971    -0.15600
F988        F  0.30735729  0.63971221  0.54194579    -0.13200
C989        C  0.33756452  0.53650960  0.33101715     0.24800
C990        C  0.31238114  0.53124918  0.36517931    -0.23300
C991        C  0.27641783  0.55453252  0.36873436     0.19700
C992        C  0.26363924  0.57886727  0.33729249     0.24700
C993        C  0.28795597  0.58365832  0.30282618    -0.23300
C994        C  0.32530004  0.56277310  0.29992598     0.19600
F995        F  0.34799504  0.56521586  0.26569004    -0.13200
F996        F  0.37207686  0.51415486  0.32629859    -0.15600
F997        F  0.22562151  0.59504308  0.33913285    -0.15600
F998        F  0.25188550  0.55175403  0.40185634    -0.13200
C999        C  0.28601021  0.37945386  0.57133799     0.24800
C1000       C  0.31822131  0.36981430  0.54454906    -0.23300
C1001       C  0.34022447  0.33374747  0.55041281     0.19700
C1002       C  0.32759469  0.30629644  0.58036787     0.24700
C1003       C  0.29261011  0.31436789  0.60415130    -0.23300
C1004       C  0.27198073  0.35121548  0.59888453     0.19600
F1005       F  0.23425362  0.35709194  0.61475350    -0.13200
F1006       F  0.26473738  0.41464029  0.56759180    -0.15600
F1007       F  0.34624061  0.26967995  0.58259723    -0.15600
F1008       F  0.37089817  0.32315726  0.52465822    -0.13200
C1009       C  0.15399097  0.17089668  0.35214151     0.24800
C1010       C  0.11403041  0.18526190  0.35045180    -0.23300
C1011       C  0.10172048  0.20777399  0.31680135     0.19700
C1012       C  0.12941849  0.21863899  0.28689280     0.24700
C1013       C  0.17110806  0.21065535  0.29203851    -0.23300
C1014       C  0.18234795  0.18324878  0.32300406     0.19600
F1015       F  0.22162525  0.17167813  0.32762693    -0.13200
F1016       F  0.16665110  0.14903637  0.38431544    -0.15600
F1017       F  0.11475226  0.23708336  0.25357299    -0.15600
F1018       F  0.06323383  0.22235350  0.31449583    -0.13200
C1019       C  0.12842629  0.24403842  0.54174318     0.24800
C1020       C  0.12077663  0.20458065  0.52822237    -0.23300
C1021       C  0.14334640  0.17252706  0.54549256     0.19700
C1022       C  0.17315366  0.18006523  0.57506906     0.24700
C1023       C  0.18094022  0.22000108  0.58821616    -0.23300
C1024       C  0.15762409  0.25153145  0.57077447     0.19600
F1025       F  0.16354900  0.29073528  0.58152637    -0.13200
F1026       F  0.10752717  0.27620954  0.52696215    -0.15600
F1027       F  0.19430066  0.14819329  0.58975450    -0.15600
F1028       F  0.13714792  0.13384344  0.53337254    -0.13200
C1029       C  0.20677116  0.36065097  0.22876768     0.24800
C1030       C  0.21466035  0.32665435  0.20411075    -0.23300
C1031       C  0.19437806  0.32395968  0.16701246     0.19700
C1032       C  0.16272069  0.35075717  0.15761154     0.24700
C1033       C  0.15089181  0.38091844  0.18541877    -0.23300
C1034       C  0.17564627  0.38784776  0.21918884     0.19600
F1035       F  0.16726175  0.41872788  0.24528262    -0.13200
F1036       F  0.22344342  0.36341785  0.26593848    -0.15600
F1037       F  0.14073783  0.34398032  0.12381066    -0.15600
F1038       F  0.19999872  0.29110344  0.14335169    -0.13200
C1039       C  0.10957393  0.57482232  0.18885967     0.24800
C1040       C  0.12011908  0.53637447  0.17450499    -0.23300
C1041       C  0.16107228  0.52715156  0.16615075     0.19700
C1042       C  0.19149479  0.55440139  0.17697651     0.24700
C1043       C  0.18140428  0.59089029  0.19724527    -0.23300
C1044       C  0.13966117  0.60240245  0.19873593     0.19600
F1045       F  0.12733524  0.64065034  0.20790897    -0.13200
F1046       F  0.06992316  0.58532324  0.19435487    -0.15600
F1047       F  0.23092176  0.54366173  0.17053633    -0.15600
F1048       F  0.17184400  0.49028263  0.15106373    -0.13200
C1049       C  0.13779201  0.58136170  0.72218608     0.24800
C1050       C  0.14668461  0.54134644  0.73293884    -0.23300
C1051       C  0.18723717  0.52937455  0.73723364     0.19700
C1052       C  0.21846572  0.55553800  0.72608864     0.24700
C1053       C  0.20960471  0.59406256  0.70986102    -0.23300
C1054       C  0.16898387  0.60773105  0.71125606     0.19600
F1055       F  0.15861495  0.64486159  0.69770889    -0.13200
F1056       F  0.09867275  0.59406072  0.71947293    -0.15600
F1057       F  0.25723792  0.54162976  0.72766974    -0.15600
F1058       F  0.19656362  0.49112611  0.74876997    -0.13200
C1059       C  0.13724741  0.33066605  0.73797793     0.24800
C1060       C  0.14562459  0.37088164  0.72815694    -0.23300
C1061       C  0.18416363  0.38000830  0.71211073     0.19700
C1062       C  0.21241952  0.34905888  0.70282651     0.24700
C1063       C  0.20151090  0.30827883  0.70639090    -0.23300
C1064       C  0.16478968  0.29968738  0.72706724     0.19600
F1065       F  0.15350392  0.26085475  0.73264540    -0.24400
F1066       F  0.10066010  0.32091016  0.75423691    -0.15600
F1067       F  0.24898642  0.35908448  0.68711469    -0.15600
F1068       F  0.19356943  0.41878754  0.70318666    -0.13200
C1069       C  0.13061848  0.66728848  0.57697437     0.24800
C1070       C  0.13691198  0.70047049  0.55133675    -0.23300
C1071       C  0.16930442  0.72650455  0.55877320     0.19700
C1072       C  0.19722711  0.71707228  0.58905568     0.24700
C1073       C  0.19278241  0.68198829  0.61240565    -0.23300
C1074       C  0.15877011  0.65758768  0.60646133     0.19600
F1075       F  0.15622998  0.62082695  0.62418322    -0.13200
F1076       F  0.09929341  0.64166032  0.57070934    -0.15600
F1077       F  0.23184332  0.73851505  0.59128973    -0.15600
F1078       F  0.17681337  0.75789393  0.53365302    -0.13200
C1079       C  0.15194357  0.72654785  0.33534422     0.24800
C1080       C  0.16084693  0.71258772  0.37412693    -0.23300
C1081       C  0.19841345  0.69330476  0.38080851     0.19700
C1082       C  0.22430110  0.68354489  0.34815988     0.24700
C1083       C  0.21148524  0.69062831  0.30843890    -0.23300
C1084       C  0.17701832  0.71541392  0.30277683     0.19600
F1085       F  0.16466708  0.72407649  0.26499604    -0.13200
F1086       F  0.11617844  0.74581140  0.32805723    -0.15600
F1087       F  0.25999686  0.66433428  0.35537503    -0.15600
F1088       F  0.20851196  0.68124430  0.41856461    -0.13200
C1089       C  0.92212381  0.70806616  0.57674743     0.24800
C1090       C  0.91757293  0.66932210  0.59276635    -0.23300
C1091       C  0.94473382  0.63842429  0.58077794     0.19700
C1092       C  0.97496116  0.64570809  0.55212799     0.24700
C1093       C  0.97887718  0.68428088  0.53474823    -0.23300
C1094       C  0.95295632  0.71580818  0.54840970     0.19600
F1095       F  0.95598321  0.75355148  0.53290591    -0.13200
F1096       F  0.89484178  0.73751317  0.58618837    -0.15600
F1097       F  0.99971785  0.61448224  0.54080645    -0.15600
F1098       F  0.94015290  0.60024821  0.59489275    -0.13200
C1099       C  0.95198535  0.60836197  0.69182674     0.24800
C1100       C  0.91141774  0.59731770  0.69843007    -0.23300
C1101       C  0.90324033  0.56446629  0.72414628     0.19700
C1102       C  0.93493203  0.54005296  0.73838576     0.24700
C1103       C  0.97504692  0.54762158  0.72632756    -0.23300
C1104       C  0.98348867  0.58297335  0.70459424     0.19600
F1105       F  0.02209046  0.59133198  0.69306986    -0.13200
F1106       F  0.96132963  0.64122860  0.66946390    -0.15600
F1107       F  0.92603552  0.50661363  0.76016517    -0.15600
F1108       F  0.86436723  0.55411717  0.73279980    -0.13200
C1109       C  0.79441636  0.53895266  0.60605483     0.24800
C1110       C  0.79947425  0.58003454  0.59546281    -0.23300
C1111       C  0.78701889  0.59169799  0.55627534     0.19700
C1112       C  0.77786706  0.56259447  0.52696376     0.24700
C1113       C  0.77998337  0.52142030  0.53627843    -0.23300
C1114       C  0.78648902  0.50983488  0.57633592     0.19600
F1115       F  0.78571322  0.47019783  0.58658854    -0.13200
F1116       F  0.79678893  0.52664899  0.64500250    -0.15600
F1117       F  0.76991581  0.57451949  0.48862645    -0.15600
F1118       F  0.78710981  0.63112557  0.54509625    -0.13200
C1119       C  0.93342616  0.71374062  0.31701088     0.24800
C1120       C  0.92597706  0.67351622  0.30442358    -0.23300
C1121       C  0.95031551  0.64253297  0.32097727     0.19700
C1122       C  0.98085883  0.65070812  0.34798676     0.24700
C1123       C  0.98833959  0.69041503  0.36109896    -0.23300
C1124       C  0.96453051  0.72205660  0.34493230     0.19600
F1125       F  0.97047490  0.76083249  0.35688218    -0.13200
F1126       F  0.90954093  0.74478893  0.30472199    -0.15600
F1127       F  0.00201346  0.61853276  0.36245625    -0.15600
F1128       F  0.94365562  0.60305248  0.31223139    -0.13200
C1129       C  0.76052340  0.54666348  0.34177933     0.24800
C1130       C  0.78951000  0.52119287  0.36021308    -0.23300
C1131       C  0.83011932  0.52315972  0.34643757     0.19700
C1132       C  0.84206091  0.55198931  0.31859924     0.24700
C1133       C  0.81414682  0.57993906  0.30274230    -0.23300
C1134       C  0.77280456  0.57565367  0.31297051     0.19600
F1135       F  0.74453940  0.60011648  0.29622432    -0.13200
F1136       F  0.72075710  0.54459970  0.35256340    -0.15600
F1137       F  0.88194498  0.55353901  0.30816090    -0.15600
F1138       F  0.85927401  0.49778281  0.36063032    -0.13200
C1139       C  0.91134975  0.50608734  0.20290433     0.24800
C1140       C  0.94496560  0.51369400  0.17759023    -0.23300
C1141       C  0.94733998  0.55121997  0.15825348     0.19700
C1142       C  0.91985401  0.58231704  0.16859807     0.24700
C1143       C  0.88915772  0.57634962  0.19786973    -0.23300
C1144       C  0.88289166  0.53683818  0.21179410     0.19600
F1145       F  0.85113900  0.52867298  0.23656795    -0.13200
F1146       F  0.90752914  0.46962635  0.22108669    -0.15600
F1147       F  0.92637551  0.61977718  0.15398056    -0.15600
F1148       F  0.97928864  0.55950404  0.13351104    -0.13200
C1149       C  0.76454757  0.29127853  0.33328913     0.24800
C1150       C  0.77918491  0.30520053  0.29556917    -0.23300
C1151       C  0.77299385  0.34653445  0.28665769     0.19700
C1152       C  0.76270739  0.37388291  0.31752279     0.24700
C1153       C  0.75671846  0.36006426  0.35700429    -0.23300
C1154       C  0.75457046  0.31861721  0.36417650     0.19600
F1155       F  0.74688066  0.30473027  0.40199842    -0.13200
F1156       F  0.76484874  0.25143967  0.34204835    -0.15600
F1157       F  0.76168794  0.41408623  0.30955112    -0.15600
F1158       F  0.77886720  0.36106221  0.24887180    -0.13200
C1159       C  0.87889868  0.18647338  0.33883765     0.24800
C1160       C  0.89013341  0.20005107  0.29980417    -0.23300
C1161       C  0.93090018  0.19501839  0.28752313     0.19700
C1162       C  0.96038548  0.18426478  0.31587611     0.24700
C1163       C  0.94965097  0.17845379  0.35660981    -0.23300
C1164       C  0.90853226  0.17682625  0.36728441     0.19600
F1165       F  0.89721275  0.16922817  0.40605313    -0.13200
F1166       F  0.83928685  0.18546731  0.35049835    -0.15600
F1167       F  0.99973282  0.18167780  0.30397102    -0.15600
F1168       F  0.94316565  0.20416353  0.24946717    -0.13200
C1169       C  0.93920251  0.34101582  0.16253785     0.24800
C1170       C  0.97107606  0.34622851  0.19015925    -0.23300
C1171       C  0.97056784  0.32348489  0.22602326     0.19700
C1172       C  0.93749272  0.29899008  0.23562965     0.24700
C1173       C  0.90478787  0.29523868  0.20896137    -0.23300
C1174       C  0.90613072  0.31622888  0.17223918     0.19600
F1175       F  0.87380803  0.31529876  0.14729594    -0.13200
F1176       F  0.93821189  0.36252197  0.12775257    -0.15600
F1177       F  0.93557253  0.28246089  0.27297872    -0.15600
F1178       F  0.00105049  0.32677539  0.25312406    -0.13200
C1179       C  0.89424260  0.36989674  0.70848247     0.24800
C1180       C  0.90051617  0.32749245  0.70665692    -0.23300
C1181       C  0.93773022  0.31245295  0.72179358     0.19700
C1182       C  0.96995430  0.33850040  0.73023580     0.24700
C1183       C  0.96546070  0.38020557  0.72459496    -0.23300
C1184       C  0.92684599  0.39584157  0.71568098     0.19600
F1185       F  0.92082556  0.43637221  0.71315879    -0.13200
F1186       F  0.85681040  0.38668256  0.70430931    -0.15600
F1187       F  0.00635379  0.32273512  0.74127272    -0.15600
F1188       F  0.94429879  0.27213399  0.72460577    -0.13200
C1189       C  0.75184312  0.36657521  0.57326533     0.24800
C1190       C  0.75893973  0.35343546  0.53345635    -0.23300
C1191       C  0.77758712  0.31541897  0.52711652     0.19700
C1192       C  0.79296798  0.29318300  0.55966863     0.24700
C1193       C  0.79141901  0.30928109  0.59917211    -0.23300
C1194       C  0.76850424  0.34514752  0.60572390     0.19600
F1195       F  0.76521621  0.36151622  0.64325326    -0.13200
F1196       F  0.73329816  0.40276056  0.58045867    -0.15600
F1197       F  0.81309416  0.25811275  0.55154536    -0.15600
F1198       F  0.78426939  0.30153019  0.48889175    -0.13200
C1199       C  0.91671825  0.19193346  0.59406297     0.24800
C1200       C  0.89632765  0.22938265  0.59329208    -0.23300
C1201       C  0.90116820  0.25423443  0.55952252     0.19700
C1202       C  0.92523837  0.24177458  0.52686387     0.24700
C1203       C  0.94717115  0.20489560  0.52793836    -0.23300
C1204       C  0.94149324  0.17929934  0.56132408     0.19600
F1205       F  0.96187690  0.14354354  0.56356361    -0.13200
F1206       F  0.91473837  0.16899340  0.62768457    -0.15600
F1207       F  0.92864210  0.26713703  0.49489597    -0.15600
F1208       F  0.88524852  0.29224948  0.55948771    -0.13200
C1209       C  0.71501799  0.84171059  0.70528074     0.24800
C1210       C  0.70453328  0.80588775  0.68473262    -0.23300
C1211       C  0.66312195  0.79637261  0.68163391     0.19700
C1212       C  0.63322454  0.82466495  0.69395985     0.24700
C1213       C  0.64424382  0.86184665  0.71133869    -0.23300
C1214       C  0.68524353  0.86915321  0.71878356     0.19600
F1215       F  0.69678150  0.90495469  0.73504853    -0.13200
F1216       F  0.75444554  0.85199145  0.70903074    -0.15600
F1217       F  0.59361559  0.81709187  0.68628369    -0.15600
F1218       F  0.65143683  0.76171167  0.66329698    -0.13200
C1219       C  0.83429396  0.79403529  0.54758736     0.24800
C1220       C  0.82371269  0.80442652  0.58790541    -0.23300
C1221       C  0.83614045  0.84261575  0.60239736     0.19700
C1222       C  0.84852416  0.87247328  0.57526857     0.24700
C1223       C  0.85088386  0.86382355  0.53380211    -0.23300
C1224       C  0.84683523  0.82384006  0.52062888     0.19600
F1225       F  0.85194214  0.81429371  0.48100011    -0.13200
F1226       F  0.83130244  0.75553150  0.53363862    -0.15600
F1227       F  0.85405161  0.91077467  0.58892794    -0.15600
F1228       F  0.83256538  0.85238504  0.64219764    -0.13200
C1229       C  0.67430049  0.74807216  0.57686383     0.24800
C1230       C  0.70130147  0.71770918  0.58955514    -0.23300
C1231       C  0.69466549  0.67773503  0.57708503     0.19700
C1232       C  0.66234015  0.66845589  0.55129314     0.24700
C1233       C  0.63578407  0.69922097  0.53771265    -0.23300
C1234       C  0.64166958  0.73896106  0.55197122     0.19600
F1235       F  0.61678764  0.76973149  0.54066088    -0.13200
F1236       F  0.68071585  0.78728307  0.58698643    -0.15600
F1237       F  0.65810191  0.62966558  0.53854368    -0.15600
F1238       F  0.72054935  0.64797437  0.58824717    -0.13200
C1239       C  0.45571834  0.85964578  0.72121550     0.24800
C1240       C  0.47461022  0.88157903  0.68986518    -0.23300
C1241       C  0.46253056  0.87404984  0.64996026     0.19700
C1242       C  0.43312467  0.84544751  0.64148246     0.24700
C1243       C  0.41345064  0.82347830  0.67254031    -0.23300
C1244       C  0.42593031  0.83060851  0.71264546     0.19600
F1245       F  0.41223408  0.80762818  0.74339468    -0.13200
F1246       F  0.46715677  0.86496989  0.76016347    -0.15600
F1247       F  0.42533733  0.83784182  0.60191966    -0.15600
F1248       F  0.48006589  0.89343655  0.61831738    -0.13200
C1249       C  0.44750433  0.68145482  0.60767178     0.24800
C1250       C  0.40856871  0.69507364  0.59582661    -0.23300
C1251       C  0.39584825  0.68592231  0.55654753     0.19700
C1252       C  0.42379207  0.67098227  0.52781396     0.24700
C1253       C  0.46448742  0.66386009  0.53819559    -0.23300
C1254       C  0.47539179  0.66644138  0.57892755     0.19600
F1255       F  0.51440869  0.65948699  0.58997376    -0.13200
F1256       F  0.45994180  0.68649183  0.64637797    -0.15600
F1257       F  0.41226213  0.66811103  0.48877543    -0.15600
F1258       F  0.35813888  0.69628335  0.54432658    -0.13200
C1259       C  0.32873618  0.78962531  0.53717241     0.24800
C1260       C  0.30833020  0.78934495  0.57467880    -0.23300
C1261       C  0.27381574  0.81446024  0.57989069     0.19700
C1262       C  0.26132100  0.84066032  0.54920565     0.24700
C1263       C  0.28388584  0.84297960  0.51309245    -0.23300
C1264       C  0.31603517  0.81536851  0.50640377     0.19600
F1265       F  0.33789503  0.81611626  0.47138137    -0.13200
F1266       F  0.36504855  0.77050139  0.53251227    -0.15600
F1267       F  0.23036732  0.86712012  0.55685290    -0.15600
F1268       F  0.25536150  0.81753454  0.61651095    -0.13200
C1269       C  0.39788314  0.66860645  0.34461245     0.24800
C1270       C  0.41060139  0.68182500  0.30604438    -0.23300
C1271       C  0.45202246  0.67572731  0.29545594     0.19700
C1272       C  0.48068968  0.66763252  0.32530796     0.24700
C1273       C  0.46821963  0.66245781  0.36546801    -0.23300
C1274       C  0.42661768  0.65976371  0.37430938     0.19600
F1275       F  0.41381903  0.65100596  0.41223472    -0.13200
F1276       F  0.35782172  0.66655857  0.35436345    -0.15600
F1277       F  0.52082802  0.66790622  0.31556523    -0.15600
F1278       F  0.46523173  0.67947687  0.25666728    -0.13200
C1279       C  0.43405114  0.86322681  0.23948010     0.24800
C1280       C  0.45365378  0.86578656  0.20156330    -0.23300
C1281       C  0.44404385  0.83746556  0.17130258     0.19700
C1282       C  0.41786561  0.80545110  0.17992130     0.24700
C1283       C  0.39972865  0.80205134  0.21829643    -0.23300
C1284       C  0.40808236  0.83135268  0.24792729     0.19600
F1285       F  0.39436490  0.82688349  0.28646442    -0.13200
F1286       F  0.44183864  0.89022179  0.26943605    -0.15600
F1287       F  0.41373611  0.77558940  0.15217766    -0.15600
F1288       F  0.46267797  0.83856715  0.13455523    -0.13200
C1289       C  0.28396057  0.78726291  0.33907652     0.24800
C1290       C  0.30354479  0.79365089  0.30158444    -0.23300
C1291       C  0.30490015  0.83354195  0.28669087     0.19700
C1292       C  0.29316888  0.86631409  0.31146084     0.24700
C1293       C  0.27704695  0.85969975  0.35024294    -0.23300
C1294       C  0.27019145  0.81991254  0.36277223     0.19600
F1295       F  0.25407140  0.81268025  0.39994314    -0.13200
F1296       F  0.28056444  0.74947941  0.35417752    -0.15600
F1297       F  0.29942642  0.90456987  0.29836038    -0.15600
F1298       F  0.32052560  0.84149205  0.24958178    -0.13200
C1299       C  0.84359219  0.83736863  0.36572958     0.24800
C1300       C  0.83908228  0.87916548  0.36057676    -0.23300
C1301       C  0.82451319  0.89357523  0.32370314     0.19700
C1302       C  0.81064019  0.86676760  0.29407822     0.24700
C1303       C  0.80843130  0.82471421  0.30198327    -0.23300
C1304       C  0.82891785  0.81037976  0.33656592     0.19600
F1305       F  0.83162851  0.77011344  0.34390375    -0.13200
F1306       F  0.85905594  0.82261418  0.40051501    -0.15600
F1307       F  0.79995532  0.88270682  0.25808666    -0.15600
F1308       F  0.82169461  0.93399803  0.31721872    -0.13200
C1309       C  0.66057929  0.74960214  0.31578406     0.24800
C1310       C  0.69556064  0.72580943  0.30911211    -0.23300
C1311       C  0.70048674  0.69028522  0.33168353     0.19700
C1312       C  0.67012692  0.67780941  0.35912715     0.24700
C1313       C  0.63480060  0.70158653  0.36544904    -0.23300
C1314       C  0.63032910  0.73737622  0.34285279     0.19600
F1315       F  0.59718340  0.76168898  0.34798339    -0.13200
F1316       F  0.65717572  0.78661981  0.29861562    -0.15600
F1317       F  0.67668785  0.64419811  0.38154205    -0.15600
F1318       F  0.73631042  0.66984796  0.32986706    -0.13200
C1319       C  0.62208305  0.81196578  0.19747185     0.24800
C1320       C  0.62799680  0.84902455  0.17792338    -0.23300
C1321       C  0.66723724  0.85914954  0.16486679     0.19700
C1322       C  0.70063701  0.83547827  0.17642607     0.24700
C1323       C  0.69517682  0.80114351  0.20100132    -0.23300
C1324       C  0.65535880  0.78747591  0.20772663     0.19600
F1325       F  0.64841003  0.75223424  0.22711356    -0.13200
F1326       F  0.58422335  0.80101577  0.20936537    -0.15600
F1327       F  0.73859008  0.84794872  0.16647866    -0.15600
F1328       F  0.67371748  0.89440137  0.14514356    -0.13200
C1329       C  0.48607135  0.19104361  0.31604309     0.24800
C1330       C  0.47855847  0.21645028  0.34956630    -0.23300
C1331       C  0.44095836  0.23643091  0.35310671     0.19700
C1332       C  0.40959065  0.22668219  0.32683729     0.24700
C1333       C  0.41550483  0.19764246  0.29608629    -0.23300
C1334       C  0.45500094  0.18276389  0.28866801     0.19600
F1335       F  0.46287724  0.15766695  0.25704995    -0.13200
F1336       F  0.52289254  0.17281978  0.31088448    -0.15600
F1337       F  0.37214332  0.24236366  0.33402377    -0.15600
F1338       F  0.43314159  0.26187338  0.38466059    -0.13200
C1339       C  0.29897494  0.10706555  0.36371121     0.24800
C1340       C  0.29803262  0.10225808  0.32133446    -0.23300
C1341       C  0.27619245  0.06893625  0.30574787     0.19700
C1342       C  0.26399693  0.03752164  0.33109839     0.24700
C1343       C  0.27249624  0.03934426  0.37236792    -0.23300
C1344       C  0.28795916  0.07511022  0.38877795     0.19600
F1345       F  0.29466242  0.07820804  0.42903258    -0.13200
F1346       F  0.31057098  0.14208724  0.38134727    -0.15600
F1347       F  0.24830164  0.00345814  0.31466749    -0.15600
F1348       F  0.27126445  0.06413812  0.26534589    -0.13200
C1349       C  0.45101656  0.05665850  0.17511594     0.24800
C1350       C  0.47198726  0.03642534  0.20630784    -0.23300
C1351       C  0.46398986  0.04827656  0.24662699     0.19700
C1352       C  0.43392123  0.07664067  0.25570926     0.24700
C1353       C  0.41079432  0.09453217  0.22499370    -0.23300
C1354       C  0.42106713  0.08614933  0.18452988     0.19600
F1355       F  0.40126780  0.10545252  0.15439150    -0.13200
F1356       F  0.45866703  0.04730338  0.13576506    -0.15600
F1357       F  0.42646210  0.08586756  0.29519660    -0.15600
F1358       F  0.48384467  0.03111291  0.27804016    -0.13200
C1359       C  0.46287813  0.10590632  0.65579139     0.24800
C1360       C  0.42698788  0.10743954  0.67905939    -0.23300
C1361       C  0.42448650  0.08301043  0.71370417     0.19700
C1362       C  0.45661682  0.05717556  0.72445178     0.24700
C1363       C  0.49125918  0.05347690  0.69942356    -0.23300
C1364       C  0.49466391  0.07946685  0.66589130     0.19600
F1365       F  0.52753684  0.07717211  0.64085110    -0.13200
F1366       F  0.46490904  0.12540315  0.61992143    -0.15600
F1367       F  0.45173724  0.03262178  0.75682265    -0.15600
F1368       F  0.38880849  0.08011327  0.73412161    -0.13200
C1369       C  0.46989874  0.22310255  0.56313866     0.24800
C1370       C  0.46221814  0.22341630  0.52151548    -0.23300
C1371       C  0.42315603  0.21418556  0.50831795     0.19700
C1372       C  0.39362198  0.20080163  0.53575835     0.24700
C1373       C  0.40340384  0.19362987  0.57674811    -0.23300
C1374       C  0.44098688  0.20818123  0.59060704     0.19600
F1375       F  0.45158548  0.20532519  0.62994358    -0.13200
F1376       F  0.50662177  0.23438167  0.57695025    -0.15600
F1377       F  0.35581323  0.19355064  0.52167456    -0.15600
F1378       F  0.41425419  0.21602018  0.46839048    -0.13200
C1379       C  0.28425862  0.08661068  0.55801340     0.24800
C1380       C  0.30789576  0.07542392  0.59169667    -0.23300
C1381       C  0.30979076  0.03370996  0.60122245     0.19700
C1382       C  0.29766444  0.00459097  0.57302715     0.24700
C1383       C  0.28011659  0.01630678  0.53649891    -0.23300
C1384       C  0.27059951  0.05726672  0.53066001     0.19600
F1385       F  0.25078102  0.06914421  0.49695803    -0.13200
F1386       F  0.27673564  0.12617405  0.55002852    -0.15600
F1387       F  0.30367007  0.96479928  0.58110258    -0.15600
F1388       F  0.32218463  0.02061954  0.63787363    -0.13200
C1389       C  0.84874050  0.06179128  0.35234315     0.24800
C1390       C  0.81861339  0.04803167  0.37948173    -0.23300
C1391       C  0.77894644  0.06372883  0.37614209     0.19700
C1392       C  0.76850875  0.08828876  0.34388153     0.24700
C1393       C  0.79779145  0.10017583  0.31517745    -0.23300
C1394       C  0.83832697  0.08779599  0.32048464     0.19600
F1395       F  0.86709418  0.09789583  0.29285418    -0.13200
F1396       F  0.88751936  0.04780515  0.35467638    -0.15600
F1397       F  0.72851180  0.09620265  0.33799660    -0.15600
F1398       F  0.74903395  0.05283377  0.40232085    -0.13200
C1399       C  0.71299184  0.18523928  0.34134382     0.24800
C1400       C  0.70036509  0.18202925  0.30097354    -0.23300
C1401       C  0.66211614  0.19801599  0.29067156     0.19700
C1402       C  0.63609662  0.21441275  0.32032485     0.24700
C1403       C  0.64718036  0.21363309  0.36109766    -0.23300
C1404       C  0.68616091  0.19981683  0.37132395     0.19600
F1405       F  0.69740415  0.19828334  0.41062273    -0.13200
F1406       F  0.75031231  0.17211998  0.35244418    -0.15600
F1407       F  0.59839125  0.22714378  0.30973531    -0.15600
F1408       F  0.64869640  0.19486825  0.25223682    -0.13200
C1409       C  0.64049489  0.05376768  0.17127707     0.24800
C1410       C  0.64461127  0.01278847  0.18052569    -0.23300
C1411       C  0.68170519  0.99806960  0.19497989     0.19700
C1412       C  0.71296051  0.02460316  0.20427975     0.24700
C1413       C  0.70623795  0.06681671  0.20212370    -0.23300
C1414       C  0.67119331  0.08051892  0.18184158     0.19600
F1415       F  0.66454123  0.12056644  0.17683450    -0.13200
F1416       F  0.60507103  0.06853996  0.15645194    -0.15600
F1417       F  0.74903987  0.00834908  0.21531441    -0.15600
F1418       F  0.68687404  0.95798767  0.20209392    -0.13200
C1419       C  0.83362686  0.10273476  0.57465764     0.24800
C1420       C  0.80019723  0.09761078  0.60088896    -0.23300
C1421       C  0.78056795  0.06019106  0.60115089     0.19700
C1422       C  0.79463235  0.02825114  0.57701727     0.24700
C1423       C  0.82675460  0.03377646  0.54930267    -0.23300
C1424       C  0.84713123  0.07096517  0.54928641     0.19600
F1425       F  0.87726404  0.07795048  0.52200066    -0.13200
F1426       F  0.85042160  0.13971047  0.57065503    -0.15600
F1427       F  0.77424442  0.99279376  0.57820548    -0.15600
F1428       F  0.74411350  0.05618754  0.61985815    -0.13200
C1429       C  0.69942886  0.02841595  0.71349884     0.24800
C1430       C  0.65865196  0.03624270  0.72412829    -0.23300
C1431       C  0.64579251  0.07628072  0.73029668     0.19700
C1432       C  0.67093789  0.10796645  0.71882806     0.24700
C1433       C  0.70950367  0.09997236  0.70129881    -0.23300
C1434       C  0.72542509  0.06047049  0.70397475     0.19600
F1435       F  0.76461626  0.05225710  0.69366786    -0.13200
F1436       F  0.71313656  0.98977014  0.70955829    -0.15600
F1437       F  0.65563835  0.14620146  0.72041766    -0.15600
F1438       F  0.60698428  0.08467124  0.74209317    -0.13200
C1439       C  0.67616308  0.22825769  0.52406713     0.24800
C1440       C  0.63475188  0.22560519  0.53328140    -0.23300
C1441       C  0.62246541  0.21795135  0.57303842     0.19700
C1442       C  0.65114896  0.20904709  0.60242687     0.24700
C1443       C  0.69248487  0.20382991  0.59148364    -0.23300
C1444       C  0.70491585  0.21750593  0.55293059     0.19600
F1445       F  0.74465963  0.21827103  0.54215988    -0.13200
F1446       F  0.68868335  0.23803960  0.48619980    -0.15600
F1447       F  0.63808455  0.20488168  0.64121809    -0.15600
F1448       F  0.58256261  0.21748319  0.58311681    -0.13200
C1449       C  0.39476508  0.71438085  0.86488532     0.24800
C1450       C  0.40138716  0.71270516  0.82262840    -0.23300
C1451       C  0.43661471  0.73184602  0.80729219     0.19700
C1452       C  0.46728303  0.74490441  0.83340978     0.24700
C1453       C  0.46315899  0.73935551  0.87519815    -0.23300
C1454       C  0.42618315  0.72523543  0.89060632     0.19600
F1455       F  0.42152926  0.71874012  0.93073186    -0.13200
F1456       F  0.35849028  0.70534657  0.88206583    -0.15600
F1457       F  0.50264155  0.75878559  0.81763541    -0.15600
F1458       F  0.44328605  0.73408396  0.76681572    -0.13200
C1459       C  0.41646440  0.56857055  0.75528779     0.24800
C1460       C  0.40391957  0.59726315  0.72695165    -0.23300
C1461       C  0.41643790  0.59304021  0.68650510     0.19700
C1462       C  0.44291637  0.56150360  0.67489980     0.24700
C1463       C  0.45665909  0.53355435  0.70379342    -0.23300
C1464       C  0.44139305  0.53646516  0.74371734     0.19600
F1465       F  0.45248078  0.50964044  0.77260132    -0.13200
F1466       F  0.40586330  0.57264366  0.79492132    -0.15600
F1467       F  0.45719698  0.56014806  0.63628249    -0.15600
F1468       F  0.40590990  0.62116663  0.65901492    -0.13200
C1469       C  0.27815212  0.60223924  0.83922606     0.24800
C1470       C  0.30289536  0.59715905  0.80446734    -0.23300
C1471       C  0.31420067  0.55745392  0.79315362     0.19700
C1472       C  0.30669280  0.52486693  0.81925741     0.24700
C1473       C  0.28522466  0.53095669  0.85577837    -0.23300
C1474       C  0.26892504  0.56947206  0.86419758     0.19600
F1475       F  0.24695833  0.57615537  0.89855153    -0.13200
F1476       F  0.26560477  0.63967145  0.85086801    -0.15600
F1477       F  0.32109601  0.48751213  0.80924622    -0.15600
F1478       F  0.33409005  0.55017026  0.75783085    -0.13200
C1479       C  0.83056796  0.57336668  0.86444023     0.24800
C1480       C  0.81890859  0.53290443  0.86255582    -0.23300
C1481       C  0.80195167  0.51771589  0.82701414     0.19700
C1482       C  0.79137758  0.54378996  0.79576796     0.24700
C1483       C  0.79600228  0.58591168  0.80065566    -0.23300
C1484       C  0.82013285  0.59958876  0.83312748     0.19600
F1485       F  0.82969635  0.63928191  0.83675232    -0.13200
F1486       F  0.84856595  0.58822520  0.89804893    -0.15600
F1487       F  0.77703797  0.52734494  0.76122089    -0.15600
F1488       F  0.79350950  0.47775899  0.82359393    -0.13200
C1489       C  0.66447767  0.71732436  0.79525145     0.24800
C1490       C  0.70332890  0.70615514  0.80957198    -0.23300
C1491       C  0.71209180  0.71467434  0.85051210     0.19700
C1492       C  0.68176137  0.72800885  0.87719956     0.24700
C1493       C  0.64194538  0.73264508  0.86388203    -0.23300
C1494       C  0.63369175  0.72918739  0.82258433     0.19600
F1495       F  0.59524626  0.73469802  0.80915458    -0.13200
F1496       F  0.65459090  0.71326401  0.75579534    -0.15600
F1497       F  0.69046220  0.73240084  0.91702549    -0.15600
F1498       F  0.74914131  0.70659187  0.86596406    -0.13200
C1499       C  0.68261213  0.59893089  0.67234869     0.24800
C1500       C  0.67993819  0.62163621  0.70851418    -0.23300
C1501       C  0.64439010  0.61883036  0.73215925     0.19700
C1502       C  0.61404019  0.59163709  0.72174275     0.24700
C1503       C  0.61903157  0.56587857  0.68803235    -0.23300
C1504       C  0.65199432  0.57192901  0.66171390     0.19600
F1505       F  0.65760314  0.54771937  0.62881275    -0.13200
F1506       F  0.71770524  0.59749234  0.65085621    -0.15600
F1507       F  0.58175797  0.58739078  0.74719054    -0.15600
F1508       F  0.64213324  0.63662813  0.76911235    -0.13200
C1509       C  0.73557221  0.34244801  0.83032137     0.24800
C1510       C  0.76494580  0.31616389  0.81324325    -0.23300
C1511       C  0.80551915  0.31994442  0.82521433     0.19700
C1512       C  0.81621996  0.34860882  0.85487848     0.24700
C1513       C  0.78637191  0.37403466  0.87297630    -0.23300
C1514       C  0.74598703  0.37085940  0.85955285     0.19600
F1515       F  0.71594244  0.39506125  0.87483558    -0.13200
F1516       F  0.69615627  0.34030896  0.81884143    -0.15600
F1517       F  0.85551450  0.35068946  0.86652366    -0.15600
F1518       F  0.83445013  0.29487625  0.80951771    -0.13200
C1519       C  0.67868965  0.32443807  0.66648516     0.24800
C1520       C  0.70512708  0.32790011  0.69952041    -0.23300
C1521       C  0.71153887  0.36625410  0.71637176     0.19700
C1522       C  0.68649325  0.39876786  0.70569616     0.24700
C1523       C  0.65563436  0.39363705  0.67699470    -0.23300
C1524       C  0.65428764  0.35727326  0.65500296     0.19600
F1525       F  0.62561144  0.35167211  0.62640703    -0.13200
F1526       F  0.67314062  0.28799586  0.64851791    -0.15600
F1527       F  0.68960000  0.43413157  0.72643200    -0.15600
F1528       F  0.73869707  0.37132926  0.74638679    -0.13200
C1529       C  0.67756692  0.18071413  0.81778303     0.24800
C1530       C  0.66427621  0.20973018  0.78926644    -0.23300
C1531       C  0.62185925  0.21668205  0.78636557     0.19700
C1532       C  0.59535262  0.20119258  0.81549326     0.24700
C1533       C  0.60985763  0.17681622  0.84672931    -0.23300
C1534       C  0.65056255  0.16439126  0.84613737     0.19600
F1535       F  0.66509605  0.14007281  0.87567224    -0.13200
F1536       F  0.71762743  0.17140689  0.82104531    -0.15600
F1537       F  0.55549536  0.21209706  0.81463773    -0.15600
F1538       F  0.60511298  0.23958841  0.75713802    -0.13200
C1539       C  0.42993020  0.31933237  0.66668483     0.24800
C1540       C  0.42517235  0.30269806  0.70565481    -0.23300
C1541       C  0.45099968  0.31723532  0.73646315     0.19700
C1542       C  0.48068848  0.34549580  0.72888028     0.24700
C1543       C  0.48449916  0.36360011  0.69081055    -0.23300
C1544       C  0.45901668  0.34987252  0.65947457     0.19600
F1545       F  0.46095902  0.36708263  0.62239723    -0.13200
F1546       F  0.40496082  0.30846623  0.63634486    -0.15600
F1547       F  0.50427154  0.35664026  0.76042009    -0.15600
F1548       F  0.44609617  0.30596816  0.77562705    -0.13200
C1549       C  0.29115547  0.31733705  0.86744034     0.24800
C1550       C  0.27955983  0.35718251  0.85794160    -0.23300
C1551       C  0.27797957  0.36838758  0.81726589     0.19700
C1552       C  0.29147135  0.34159076  0.78694599     0.24700
C1553       C  0.30613996  0.30250976  0.79638746    -0.23300
C1554       C  0.30329358  0.28991387  0.83687163     0.19600
F1555       F  0.31649990  0.25267739  0.84768555    -0.13200
F1556       F  0.29343191  0.30576284  0.90658180    -0.15600
F1557       F  0.29399523  0.35542129  0.74861343    -0.15600
F1558       F  0.26753529  0.40680388  0.80717164    -0.13200
C1559       C  0.40908453  0.16730717  0.81240139     0.24800
C1560       C  0.39359418  0.20679056  0.80912719    -0.23300
C1561       C  0.40245789  0.23491564  0.83974623     0.19700
C1562       C  0.42651007  0.22402036  0.87242734     0.24700
C1563       C  0.44429510  0.18517137  0.87432461    -0.23300
C1564       C  0.43365057  0.15629141  0.84494884     0.19600
F1565       F  0.44970978  0.11835900  0.84563964    -0.13200
F1566       F  0.40400940  0.14050290  0.78203262    -0.15600
F1567       F  0.43494131  0.25280070  0.90046023    -0.15600
F1568       F  0.39196416  0.27442872  0.83571712    -0.13200
C1569       C  0.44152101  0.30069590  0.14666231     0.24800
C1570       C  0.41049755  0.29348183  0.17515981    -0.23300
C1571       C  0.41234917  0.31254218  0.21309627     0.19700
C1572       C  0.44371405  0.33971516  0.22176500     0.24700
C1573       C  0.47396746  0.34822812  0.19250760    -0.23300
C1574       C  0.47324270  0.32698097  0.15546761     0.19600
F1575       F  0.50213192  0.33312110  0.12664239    -0.13200
F1576       F  0.43927328  0.28502111  0.10876467    -0.15600
F1577       F  0.44278267  0.35964260  0.25773887    -0.15600
F1578       F  0.38207173  0.30718484  0.24060316    -0.13200
C1579       C  0.42252196  0.16054687  0.02927707     0.24800
C1580       C  0.46306443  0.16532714  0.04042446    -0.23300
C1581       C  0.47170636  0.18076717  0.07895491     0.19700
C1582       C  0.44022657  0.19420078  0.10477523     0.24700
C1583       C  0.39972452  0.19502117  0.09114874    -0.23300
C1584       C  0.39128560  0.17598427  0.05392698     0.19600
F1585       F  0.35303072  0.17559285  0.03948148    -0.13200
F1586       F  0.41334620  0.14567346  0.99215991    -0.15600
F1587       F  0.45030330  0.21001548  0.14113721    -0.15600
F1588       F  0.51082237  0.18539589  0.09046325    -0.13200
C1589       C  0.27746348  0.29137700  0.04798854     0.24800
C1590       C  0.28903470  0.30270921  0.08751518    -0.23300
C1591       C  0.28094375  0.34312286  0.09958598     0.19700
C1592       C  0.27184394  0.37257559  0.07079671     0.24700
C1593       C  0.26819702  0.36197767  0.02997872    -0.23300
C1594       C  0.26767264  0.32093089  0.01938770     0.19600
F1595       F  0.25995352  0.30960935  0.98081684    -0.13200
F1596       F  0.27716444  0.25196707  0.03638934    -0.15600
F1597       F  0.26822729  0.41167157  0.08261282    -0.15600
F1598       F  0.28412267  0.35475380  0.13884436    -0.13200
C1599       C  0.69827583  0.66872450  0.05784165     0.24800
C1600       C  0.70363112  0.69277806  0.09245320    -0.23300
C1601       C  0.68229821  0.72977972  0.09525284     0.19700
C1602       C  0.65527489  0.74193138  0.06474361     0.24700
C1603       C  0.64917881  0.71710766  0.03064951    -0.23300
C1604       C  0.67250905  0.68122850  0.02691451     0.19600
F1605       F  0.66845664  0.65657287  0.99426787    -0.13200
F1606       F  0.71424633  0.63081344  0.05588436    -0.15600
F1607       F  0.63267257  0.77607780  0.07029978    -0.15600
F1608       F  0.68509824  0.75248106  0.12919178    -0.13200
C1609       C  0.83284791  0.53736496  0.07961699     0.24800
C1610       C  0.82710474  0.54817642  0.03919092    -0.23300
C1611       C  0.81428840  0.58779451  0.03040637     0.19700
C1612       C  0.80303189  0.61468121  0.06160725     0.24700
C1613       C  0.80163030  0.60125874  0.10184269    -0.23300
C1614       C  0.81967560  0.56344291  0.11070289     0.19600
F1615       F  0.82056126  0.54988398  0.14925512    -0.13200
F1616       F  0.84605296  0.49958459  0.08897607    -0.15600
F1617       F  0.78937543  0.65209550  0.05177876    -0.15600
F1618       F  0.80904244  0.59915488  0.99143589    -0.13200
C1619       C  0.64668277  0.60341371  0.20984830     0.24800
C1620       C  0.68874127  0.59446927  0.20598082    -0.23300
C1621       C  0.70159127  0.55532177  0.21787199     0.19700
C1622       C  0.67324133  0.52440880  0.22397094     0.24700
C1623       C  0.63152171  0.53229004  0.22011991    -0.23300
C1624       C  0.61842801  0.57240196  0.21540684     0.19600
F1625       F  0.57813199  0.58131207  0.21438069    -0.13200
F1626       F  0.63255534  0.64199526  0.20750232    -0.15600
F1627       F  0.68667717  0.48621124  0.23101492    -0.15600
F1628       F  0.74170383  0.54617727  0.22110319    -0.13200
C1629       C  0.81774546  0.31233023  0.07519428     0.24800
C1630       C  0.77933465  0.30790914  0.09309541    -0.23300
C1631       C  0.75004945  0.33863681  0.08818662     0.19700
C1632       C  0.75877225  0.37291480  0.06547420     0.24700
C1633       C  0.79660125  0.37663654  0.04563853    -0.23300
C1634       C  0.82663693  0.34666158  0.05216754     0.19600
F1635       F  0.86369354  0.34903886  0.03408413    -0.13200
F1636       F  0.84547662  0.28182978  0.07724117    -0.15600
F1637       F  0.72903057  0.40120558  0.06093882    -0.15600
F1638       F  0.71151481  0.33373519  0.10203103    -0.13200
C1639       C  0.65175479  0.28459347  0.19990690     0.24800
C1640       C  0.69155170  0.29213975  0.18556481    -0.23300
C1641       C  0.70712816  0.33137301  0.19091448     0.19700
C1642       C  0.68181903  0.36302106  0.20465635     0.24700
C1643       C  0.64105384  0.35586772  0.21456921    -0.23300
C1644       C  0.62689488  0.31613481  0.21430973     0.19600
F1645       F  0.58740955  0.30854680  0.22343361    -0.13200
F1646       F  0.63540473  0.24729815  0.19678672    -0.15600
F1647       F  0.69619999  0.40129787  0.20509456    -0.15600
F1648       F  0.74517087  0.34061720  0.17843739    -0.13200
C1649       C  0.65570126  0.17010751  0.08717560     0.24800
C1650       C  0.69326099  0.18625609  0.07412034    -0.23300
C1651       C  0.70474269  0.17959628  0.03321361     0.19700
C1652       C  0.67625673  0.16584049  0.00523941     0.24700
C1653       C  0.63697441  0.15580857  0.01804925    -0.23300
C1654       C  0.62802312  0.15498989  0.05937469     0.19600
F1655       F  0.59054335  0.14398274  0.07245314    -0.13200
F1656       F  0.64379614  0.17208866  0.12640175    -0.15600
F1657       F  0.68615269  0.16474392  0.96531004    -0.15600
F1658       F  0.74285305  0.18755713  0.01975274    -0.13200
C1659       C  0.40359715  0.72022790  0.05761441     0.24800
C1660       C  0.41503809  0.69889760  0.09256747    -0.23300
C1661       C  0.45583385  0.70216835  0.10526861     0.19700
C1662       C  0.48558240  0.71558496  0.07848320     0.24700
C1663       C  0.47459764  0.73019584  0.04064245    -0.23300
C1664       C  0.43339919  0.73628503  0.03204042     0.19600
F1665       F  0.42216063  0.75573867  0.99797929    -0.13200
F1666       F  0.36396541  0.72390503  0.04723852    -0.15600
F1667       F  0.52529283  0.71290329  0.08883063    -0.15600
F1668       F  0.46729402  0.69217778  0.14323573    -0.13200
C1669       C  0.40612342  0.54327700  0.14883894     0.24800
C1670       C  0.39782395  0.57549736  0.17569368    -0.23300
C1671       C  0.41912128  0.57694298  0.21235830     0.19700
C1672       C  0.44817013  0.54723224  0.22181053     0.24700
C1673       C  0.45767602  0.51620614  0.19399800    -0.23300
C1674       C  0.43522426  0.51376090  0.15807449     0.19600
F1675       F  0.44312117  0.48402721  0.13053707    -0.13200
F1676       F  0.39014426  0.54322186  0.11122301    -0.15600
F1677       F  0.46966884  0.55111751  0.25636651    -0.15600
F1678       F  0.41495317  0.60938034  0.23721300    -0.13200
C1679       C  0.29023006  0.52330627  0.06689293     0.24800
C1680       C  0.27825954  0.53368020  0.02767181    -0.23300
C1681       C  0.27502932  0.57472979  0.01774116     0.19700
C1682       C  0.28791821  0.60452067  0.04503626     0.24700
C1683       C  0.30382580  0.59380280  0.08308359    -0.23300
C1684       C  0.30137322  0.55306944  0.09486004     0.19600
F1685       F  0.31326741  0.54113549  0.13205755    -0.13200
F1686       F  0.29409524  0.48398610  0.07727351    -0.15600
F1687       F  0.28702291  0.64371425  0.03326197    -0.15600
F1688       F  0.26262129  0.58584651  0.98043312    -0.13200
loop_ 
_geom_bond_atom_site_label_1 
_geom_bond_atom_site_label_2 
_geom_bond_distance 
_geom_bond_site_symmetry_2 
_ccdc_geom_bond_type 
C1            C2   1.540       .  S
C1            C7   1.529       .  S
C1            C5   1.518       .  S
C1         C1660   1.530       .  S
C2            H9   1.085       .  S
C2            C3   1.373       .  D
C3            C4   1.555       .  S
C3         C1683   1.503       .  S
C4            C8   1.553       .  S
C4            C6   1.566       .  S
C4           H10   1.106       .  S
C5           H11   1.083       .  S
C5            C6   1.369       .  D
C6          C543   1.542       .  S
C7           H12   1.085       .  S
C7            C8   1.352       .  D
C8         C1670   1.487       .  S
C13          C14   1.526       .  S
C13          C19   1.540       .  S
C13          C17   1.524       .  S
C13        C1650   1.543       .  S
C14          H21   1.085       .  S
C14          C15   1.359       .  D
C15          C16   1.551       .  S
C15        C1630   1.481       .  S
C16          C20   1.547       .  S
C16          C18   1.571       .  S
C16          H22   1.102       .  S
C17          H23   1.071       .  S
C17          C18   1.382       .  D
C18         C542   1.584       .  S
C19          H24   1.084       .  S
C19          C20   1.367       .  D
C20        C1640   1.504       .  S
C25          C26   1.540       .  S
C25          C31   1.535       .  S
C25          C29   1.539       .  S
C25        C1620   1.553       .  S
C26          H33   1.085       .  S
C26          C27   1.365       .  D
C27          C28   1.547       .  S
C27        C1613   1.500       .  S
C28          C32   1.554       .  S
C28          C30   1.570       .  S
C28          H34   1.106       .  S
C29          H35   1.084       .  S
C29          C30   1.382       .  D
C30         C546   1.566       .  S
C31          H36   1.084       .  S
C31          C32   1.357       .  D
C32        C1600   1.494       .  S
C37          C38   1.537       .  S
C37          C43   1.534       .  S
C37          C41   1.532       .  S
C37        C1590   1.542       .  S
C38          H45   1.084       .  S
C38          C39   1.365       .  D
C39          C40   1.546       .  S
C39        C1583   1.503       .  S
C40          C44   1.547       .  S
C40          C42   1.575       .  S
C40          H46   1.056       .  S
C41          H47   1.079       .  S
C41          C42   1.382       .  D
C42         C541   1.582       .  S
C43          H48   1.086       .  S
C43          C44   1.354       .  D
C44        C1570   1.488       .  S
O49          V57   1.917       .  S
O49          C59   1.269       .  A
O50          V57   1.915       .  S
O50          C60   1.267       .  A
O51          V57   1.918       .  S
O51          C61   1.267       .  A
O52          V57   1.913       .  S
O52          C62   1.267       .  A
O53          V58   1.903       .  S
O53          C62   1.267       .  A
O54          V58   1.905       .  S
O54          C61   1.265       .  A
O55          V58   1.891       .  S
O55          C60   1.261       .  A
O56          V58   1.893       .  S
O56          C59   1.263       .  A
V57          V58   2.083       .  T
C59        C1673   1.487       .  S
C60        C1643   1.471       .  S
C61        C1623   1.483       .  S
C62        C1573   1.496       .  S
C63          C64   1.535       .  S
C63          C69   1.528       .  S
C63          C67   1.550       .  S
C63        C1540   1.544       .  S
C64          H71   1.088       .  S
C64          C65   1.353       .  D
C65          C66   1.545       .  S
C65        C1560   1.485       .  S
C66          C70   1.550       .  S
C66          C68   1.583       .  S
C66          H72   1.107       .  S
C67          H73   1.083       .  S
C67          C68   1.393       .  D
C68         C544   1.573       .  S
C69          H74   1.087       .  S
C69          C70   1.356       .  D
C70        C1553   1.505       .  S
C75          C76   1.535       .  S
C75          C81   1.529       .  S
C75          C79   1.516       .  S
C75        C1530   1.542       .  S
C76          H83   1.076       .  S
C76          C77   1.365       .  D
C77          C78   1.548       .  S
C77        C1520   1.484       .  S
C78          C82   1.549       .  S
C78          C80   1.572       .  S
C78          H84   1.104       .  S
C79          H85   1.074       .  S
C79          C80   1.379       .  D
C80         C545   1.569       .  S
C81          H86   1.088       .  S
C81          C82   1.360       .  D
C82        C1510   1.492       .  S
C87          C88   1.527       .  S
C87          C93   1.527       .  S
C87          C91   1.514       .  S
C87        C1483   1.533       .  S
C88          H95   1.082       .  S
C88          C89   1.362       .  D
C89          C90   1.561       .  S
C89        C1500   1.484       .  S
C90          C94   1.548       .  S
C90          C92   1.571       .  S
C90          H96   1.080       .  S
C91          H97   1.074       .  S
C91          C92   1.381       .  D
C92         C728   1.577       .  S
C93          H98   1.085       .  S
C93          C94   1.361       .  D
C94        C1490   1.505       .  S
C99         C100   1.530       .  S
C99         C105   1.537       .  S
C99         C103   1.520       .  S
C99        C1450   1.544       .  S
C100        H107   1.087       .  S
C100        C101   1.359       .  D
C101        C102   1.540       .  S
C101       C1460   1.474       .  S
C102        C106   1.555       .  S
C102        C104   1.575       .  S
C102        H108   1.105       .  S
C103        H109   1.068       .  S
C103        C104   1.380       .  D
C104        C547   1.574       .  S
C105        H110   1.080       .  S
C105        C106   1.365       .  D
C106       C1470   1.505       .  S
O111        V119   1.923       .  S
O111        C121   1.269       .  A
O112        V119   1.922       .  S
O112        C122   1.269       .  A
O113        V119   1.912       .  S
O113        C123   1.265       .  A
O114        V119   1.909       .  S
O114        C124   1.265       .  A
O115        V120   1.914       .  S
O115        C124   1.268       .  A
O116        V120   1.904       .  S
O116        C123   1.266       .  A
O117        V120   1.898       .  S
O117        C122   1.262       .  A
O118        V120   1.900       .  S
O118        C121   1.264       .  A
V119        V120   2.085       .  T
C121       C1680   1.483   1_556  S
C122       C1550   1.482       .  S
C123       C1593   1.477   1_556  S
C124       C1473   1.486       .  S
O125        V133   1.934       .  S
O125        C135   1.273   1_556  A
O126        V133   1.928       .  S
O126        C136   1.271       .  A
O127        V133   1.903       .  S
O127        C137   1.262   1_556  A
O128        V133   1.902       .  S
O128        C138   1.262       .  A
O129        V134   1.896       .  S
O129        C138   1.264       .  A
O130        V134   1.894       .  S
O130        C137   1.264   1_556  A
O131        V134   1.883       .  S
O131        C136   1.259       .  A
O132        V134   1.886       .  S
O132        C135   1.261   1_556  A
V133        V134   2.085       .  T
C135       C1603   1.496       .  S
C136       C1453   1.476       .  S
C137       C1663   1.463       .  S
C138       C1493   1.464       .  S
O139        V147   1.888       .  S
O139        C149   1.262       .  A
O140        V147   1.897   1_554  S
O140        C150   1.265       .  A
O141        V147   1.888       .  S
O141        C151   1.261   1_556  A
O142        V147   1.887       .  S
O142        C152   1.263       .  A
O143        V148   1.924       .  S
O143        C152   1.270       .  A
O144        V148   1.923       .  S
O144        C151   1.269   1_556  A
O145        V148   1.906       .  S
O145        C150   1.266   1_556  A
O146        V148   1.906       .  S
O146        C149   1.263       .  A
V147        V148   2.084       .  T
C149       C1480   1.462       .  S
C150       C1633   1.490       .  S
C151       C1610   1.476       .  S
C152       C1513   1.496       .  S
O153        V161   1.893       .  S
O153        C163   1.262   1_556  A
O154        V161   1.887       .  S
O154        C164   1.262       .  A
O155        V161   1.889       .  S
O155        C165   1.263       .  A
O156        V161   1.887       .  S
O156        C166   1.261       .  A
O157        V162   1.914       .  S
O157        C166   1.267       .  A
O158        V162   1.911       .  S
O158        C165   1.268       .  A
O159        V162   1.915       .  S
O159        C164   1.267       .  A
O160        V162   1.912       .  S
O160        C163   1.267   1_556  A
V161        V162   2.079       .  T
C163       C1580   1.473       .  S
C164       C1533   1.471       .  S
C165       C1563   1.487       .  S
C166       C1653   1.467   1_556  S
O167        V175   1.885       .  S
O167        C177   1.262       .  A
O168        V175   1.884       .  S
O168        C178   1.265       .  A
O169        V175   1.881       .  S
O169        C179   1.260       .  A
O170        V175   1.869       .  S
O170        C180   1.258       .  A
O171        V176   1.917       .  S
O171        C180   1.269       .  A
O172        V176   1.922       .  S
O172        C179   1.270       .  A
O173        V176   1.924       .  S
O173        C178   1.268       .  A
O174        V176   1.918       .  S
O174        C177   1.269       .  A
V175        V176   2.078       .  T
C177       C1503   1.480       .  S
C178       C1543   1.498       .  S
C179       C1523   1.479       .  S
C180       C1463   1.479       .  S
C181        C182   1.536       .  S
C181        C187   1.532       .  S
C181        C185   1.522       .  S
C181       C1443   1.532       .  S
C182        H189   1.084       .  S
C182        C183   1.364       .  D
C183        C184   1.546       .  S
C183       C1433   1.497       .  S
C184        C188   1.553       .  S
C184        C186   1.566       .  S
C184        H190   1.106       .  S
C185        H191   1.086       .  S
C185        C186   1.375       .  D
C186        C545   1.551       .  S
C187        H192   1.086       .  S
C187        C188   1.359       .  D
C188       C1420   1.486       .  S
C193        C194   1.542       .  S
C193        C199   1.524       .  S
C193        C197   1.515       .  S
C193       C1413   1.534       .  S
C194        H201   1.087       .  S
C194        C195   1.362       .  D
C195        C196   1.536       .  S
C195       C1400   1.491       .  S
C196        C200   1.562       .  S
C196        C198   1.577       .  S
C196        H202   1.105       .  S
C197        H203   1.072       .  S
C197        C198   1.375       .  D
C198        C542   1.570       .  S
C199        H204   1.081       .  S
C199        C200   1.362       .  D
C200       C1393   1.486       .  S
C205        C206   1.522       .  S
C205        C211   1.535       .  S
C205        C209   1.522       .  S
C205       C1380   1.546       .  S
C206        H213   1.082       .  S
C206        C207   1.356       .  D
C207        C208   1.562       .  S
C207       C1360   1.488       .  S
C208        C212   1.557       .  S
C208        C210   1.571       .  S
C208        H214   1.098       .  S
C209        H215   1.068       .  S
C209        C210   1.379       .  D
C210        C544   1.581       .  S
C211        H216   1.084       .  S
C211        C212   1.372       .  D
C212       C1373   1.511       .  S
C217        C218   1.529       .  S
C217        C223   1.526       .  S
C217        C221   1.506       .  S
C217       C1340   1.539       .  S
C218        H225   1.081       .  S
C218        C219   1.364       .  D
C219        C220   1.553       .  S
C219       C1333   1.487       .  S
C220        C224   1.543       .  S
C220        C222   1.594       .  S
C220        H226   1.069       .  S
C221        H227   1.066       .  S
C221        C222   1.387       .  D
C222        C541   1.607       .  S
C223        H228   1.088       .  S
C223        C224   1.354       .  D
C224       C1353   1.489       .  S
O229        V237   1.918       .  S
O229        C239   1.268       .  A
O230        V237   1.923       .  S
O230        C240   1.269       .  A
O231        V237   1.902       .  S
O231        C241   1.263       .  A
O232        V237   1.902       .  S
O232        C242   1.265       .  A
O233        V238   1.901       .  S
O233        C242   1.265       .  A
O234        V238   1.895       .  S
O234        C241   1.264       .  A
O235        V238   1.896       .  S
O235        C240   1.263       .  A
O236        V238   1.892       .  S
O236        C239   1.261       .  A
V237        V238   2.082       .  T
C239       C1403   1.473       .  S
C240       C1370   1.480       .  S
C241       C1440   1.463       .  S
C242       C1330   1.473       .  S
C243        C244   1.530       .  S
C243        C249   1.536       .  S
C243        C247   1.526       .  S
C243       C1303   1.549       .  S
C244        H251   1.087       .  S
C244        C245   1.358       .  D
C245        C246   1.556       .  S
C245       C1310   1.489       .  S
C246        C250   1.550       .  S
C246        C248   1.573       .  S
C246        H252   1.104       .  S
C247        H253   1.070       .  S
C247        C248   1.386       .  D
C248        C546   1.586       .  S
C249        H254   1.079       .  S
C249        C250   1.365       .  D
C250       C1323   1.498       .  S
C255        C256   1.548       .  S
C255        C261   1.530       .  S
C255        C259   1.524       .  S
C255       C1270   1.541       .  S
C256        H263   1.085       .  S
C256        C257   1.371       .  D
C257        C258   1.543       .  S
C257       C1290   1.502       .  S
C258        C262   1.548       .  S
C258        C260   1.564       .  S
C258        H264   1.107       .  S
C259        H265   1.083       .  S
C259        C260   1.374       .  D
C260        C543   1.550       .  S
C261        H266   1.086       .  S
C261        C262   1.356       .  D
C262       C1283   1.480       .  S
C267        C268   1.518       .  S
C267        C273   1.524       .  S
C267        C271   1.542       .  S
C267       C1243   1.542       .  S
C268        H275   1.088       .  S
C268        C269   1.351       .  D
C269        C270   1.558       .  S
C269       C1260   1.484       .  S
C270        C274   1.551       .  S
C270        C272   1.575       .  S
C270        H276   1.103       .  S
C271        H277   1.060       .  S
C271        C272   1.392       .  D
C272        C547   1.587       .  S
C273        H278   1.087       .  S
C273        C274   1.359       .  D
C274       C1250   1.497       .  S
C279        C280   1.537       .  S
C279        C285   1.533       .  S
C279        C283   1.522       .  S
C279       C1220   1.537       .  S
C280        H287   1.085       .  S
C280        C281   1.364       .  D
C281        C282   1.547       .  S
C281       C1210   1.498       .  S
C282        C286   1.549       .  S
C282        C284   1.577       .  S
C282        H288   1.085       .  S
C283        H289   1.084       .  S
C283        C284   1.380       .  D
C284        C728   1.568       .  S
C285        H290   1.085       .  S
C285        C286   1.358       .  D
C286       C1230   1.490       .  S
O291        V299   1.890       .  S
O291        C301   1.262       .  A
O292        V299   1.889       .  S
O292        C302   1.264   1_565  A
O293        V299   1.888       .  S
O293        C303   1.260       .  A
O294        V299   1.883       .  S
O294        C304   1.262   1_565  A
O295        V300   1.922       .  S
O295        C304   1.269   1_565  A
O296        V300   1.925       .  S
O296        C303   1.270       .  A
O297        V300   1.912   1_545  S
O297        C302   1.266       .  A
O298        V300   1.912       .  S
O298        C301   1.265       .  A
V299        V300   2.083       .  T
C301       C1223   1.467       .  S
C302       C1390   1.488       .  S
C303       C1300   1.477       .  S
C304       C1423   1.484       .  S
O305        V313   1.889       .  S
O305        C315   1.260       .  A
O306        V313   1.895   1_545  S
O306        C316   1.263       .  A
O307        V313   1.900       .  S
O307        C317   1.264   1_565  A
O308        V313   1.896       .  S
O308        C318   1.266       .  A
O309        V314   1.912       .  S
O309        C318   1.266       .  A
O310        V314   1.910       .  S
O310        C317   1.265   1_565  A
O311        V314   1.922   1_545  S
O311        C316   1.271       .  A
O312        V314   1.922       .  S
O312        C315   1.269       .  A
V313        V314   2.081       .  T
C315       C1213   1.476       .  S
C316       C1363   1.494       .  S
C317       C1430   1.473       .  S
C318       C1240   1.494       .  S
O319        V327   1.888       .  S
O319        C329   1.261   1_565  A
O320        V327   1.888       .  S
O320        C330   1.263       .  A
O321        V327   1.900       .  S
O321        C331   1.264       .  A
O322        V327   1.900       .  S
O322        C332   1.265       .  A
O323        V328   1.916       .  S
O323        C332   1.267       .  A
O324        V328   1.913       .  S
O324        C331   1.267       .  A
O325        V328   1.914       .  S
O325        C330   1.268       .  A
O326        V328   1.913       .  S
O326        C329   1.267   1_565  A
V327        V328   2.079       .  T
C329       C1343   1.468       .  S
C330       C1263   1.480       .  S
C331       C1293   1.477       .  S
C332       C1383   1.478   1_565  S
O333        V341   1.886       .  S
O333        C343   1.264   1_565  A
O334        V341   1.890       .  S
O334        C344   1.262       .  A
O335        V341   1.885       .  S
O335        C345   1.261       .  A
O336        V341   1.885       .  S
O336        C346   1.262       .  A
O337        V342   1.912       .  S
O337        C346   1.268       .  A
O338        V342   1.907       .  S
O338        C345   1.265       .  A
O339        V342   1.919       .  S
O339        C344   1.268       .  A
O340        V342   1.920       .  S
O340        C343   1.268   1_565  A
V341        V342   2.081       .  T
C343       C1350   1.492       .  S
C344       C1320   1.476       .  S
C345       C1410   1.463   1_565  S
C346       C1280   1.482       .  S
O347        V355   1.899       .  S
O347        C357   1.266       .  A
O348        V355   1.896       .  S
O348        C358   1.263       .  A
O349        V355   1.886       .  S
O349        C359   1.260       .  A
O350        V355   1.890       .  S
O350        C360   1.263       .  A
O351        V356   1.927       .  S
O351        C360   1.271       .  A
O352        V356   1.925       .  S
O352        C359   1.269       .  A
O353        V356   1.912       .  S
O353        C358   1.265       .  A
O354        V356   1.912       .  S
O354        C357   1.267       .  A
V355        V356   2.085       .  T
C357       C1233   1.495       .  S
C358       C1273   1.472       .  S
C359       C1253   1.475       .  S
C360       C1313   1.496       .  S
C361        C362   1.547       .  S
C361        C367   1.532       .  S
C361        C365   1.541       .  S
C361       C1180   1.549       .  S
C362        H369   1.079       .  S
C362        C363   1.367       .  D
C363        C364   1.547       .  S
C363       C1193   1.507       .  S
C364        C368   1.543       .  S
C364        C366   1.570       .  S
C364        H370   1.104       .  S
C365        H371   1.083       .  S
C365        C366   1.381       .  D
C366        C545   1.568       .  S
C367        H372   1.087       .  S
C367        C368   1.353       .  D
C368       C1200   1.482       .  S
C373        C374   1.538       .  S
C373        C379   1.535       .  S
C373        C377   1.530       .  S
C373       C1150   1.537       .  S
C374        H381   1.084       .  S
C374        C375   1.358       .  D
C375        C376   1.546       .  S
C375       C1173   1.489       .  S
C376        C380   1.550       .  S
C376        C378   1.571       .  S
C376        H382   1.101       .  S
C377        H383   1.086       .  S
C377        C378   1.378       .  D
C378        C542   1.560       .  S
C379        H384   1.085       .  S
C379        C380   1.362       .  D
C380       C1160   1.501       .  S
C385        C386   1.527       .  S
C385        C391   1.528       .  S
C385        C389   1.520       .  S
C385       C1120   1.537       .  S
C386        H393   1.088       .  S
C386        C387   1.357       .  D
C387        C388   1.556       .  S
C387       C1143   1.494       .  S
C388        C392   1.551       .  S
C388        C390   1.590       .  S
C388        H394   1.105       .  S
C389        H395   1.069       .  S
C389        C390   1.386       .  D
C390        C546   1.575       .  S
C391        H396   1.088       .  S
C391        C392   1.360       .  D
C392       C1133   1.498       .  S
C397        C398   1.545       .  S
C397        C403   1.526       .  S
C397        C401   1.534       .  S
C397       C1110   1.545       .  S
C398        H405   1.082       .  S
C398        C399   1.366       .  D
C399        C400   1.541       .  S
C399       C1100   1.489       .  S
C400        C404   1.542       .  S
C400        C402   1.561       .  S
C400        H406   1.105       .  S
C401        H407   1.079       .  S
C401        C402   1.379       .  D
C402        C728   1.560       .  S
C403        H408   1.087       .  S
C403        C404   1.353       .  D
C404       C1090   1.476       .  S
O409        V417   1.913       .  S
O409        C419   1.267       .  A
O410        V417   1.906       .  S
O410        C420   1.266       .  A
O411        V417   1.919       .  S
O411        C421   1.269       .  A
O412        V417   1.926       .  S
O412        C422   1.269       .  A
O413        V418   1.874       .  S
O413        C422   1.261       .  A
O414        V418   1.869       .  S
O414        C421   1.258       .  A
O415        V418   1.889       .  S
O415        C420   1.263       .  A
O416        V418   1.891       .  S
O416        C419   1.262       .  A
V417        V418   2.083       .  T
C419       C1080   1.473       .  S
C420       C1093   1.483   1_455  S
C421       C1070   1.471       .  S
C422       C1123   1.493   1_455  S
O423        V431   1.897       .  S
O423        C433   1.264       .  A
O424        V431   1.910       .  S
O424        C434   1.267       .  A
O425        V431   1.891       .  S
O425        C435   1.262       .  A
O426        V431   1.903       .  S
O426        C436   1.264       .  A
O427        V432   1.921       .  S
O427        C436   1.268       .  A
O428        V432   1.918       .  S
O428        C435   1.268       .  A
O429        V432   1.910       .  S
O429        C434   1.265       .  A
O430        V432   1.910       .  S
O430        C433   1.265       .  A
V431        V432   2.088       .  T
C433       C1050   1.472       .  S
C434       C1183   1.481   1_455  S
C435       C1103   1.475   1_455  S
C436       C1060   1.486       .  S
O437        V445   1.918   1_655  S
O437        C447   1.269       .  A
O438        V445   1.914       .  S
O438        C448   1.269       .  A
O439        V445   1.917       .  S
O439        C449   1.269       .  A
O440        V445   1.907       .  S
O440        C450   1.264       .  A
O441        V446   1.894       .  S
O441        C450   1.264       .  A
O442        V446   1.898       .  S
O442        C449   1.265       .  A
O443        V446   1.890       .  S
O443        C448   1.263       .  A
O444        V446   1.896   1_655  S
O444        C447   1.263       .  A
V445        V446   2.080       .  T
C447       C1140   1.482       .  S
C448       C1033   1.486       .  S
C449       C1170   1.492   1_455  S
C450       C1040   1.469       .  S
O451        V459   1.899   1_655  S
O451        C461   1.264       .  A
O452        V459   1.899       .  S
O452        C462   1.267       .  A
O453        V459   1.867       .  S
O453        C463   1.256       .  A
O454        V459   1.871   1_655  S
O454        C464   1.258       .  A
O455        V460   1.930   1_655  S
O455        C464   1.272       .  A
O456        V460   1.925       .  S
O456        C463   1.270       .  A
O457        V460   1.919       .  S
O457        C462   1.267       .  A
O458        V460   1.914   1_655  S
O458        C461   1.265       .  A
V459        V460   2.085       .  T
C461       C1163   1.476       .  S
C462       C1020   1.500       .  S
C463       C1010   1.468       .  S
C464       C1203   1.488       .  S
O465        V473   1.895       .  S
O465        C475   1.264       .  A
O466        V473   1.907       .  S
O466        C476   1.266       .  A
O467        V473   1.881       .  S
O467        C477   1.258       .  A
O468        V473   1.876       .  S
O468        C478   1.261       .  A
O469        V474   1.936       .  S
O469        C478   1.273       .  A
O470        V474   1.935       .  S
O470        C477   1.274       .  A
O471        V474   1.900       .  S
O471        C476   1.262       .  A
O472        V474   1.899       .  S
O472        C475   1.261       .  A
V473        V474   2.080       .  T
C475       C1153   1.460       .  S
C476       C1113   1.472       .  S
C477       C1190   1.482       .  S
C478       C1130   1.497       .  S
C479        C480   1.524       .  S
C479        C485   1.523       .  S
C479        C483   1.542       .  S
C479       C1023   1.548       .  S
C480        H487   1.088       .  S
C480        C481   1.351       .  D
C481        C482   1.550       .  S
C481       C1003   1.482       .  S
C482        C486   1.564       .  S
C482        C484   1.580       .  S
C482        H488   1.107       .  S
C483        H489   1.065       .  S
C483        C484   1.398       .  D
C484        C544   1.588       .  S
C485        H490   1.087       .  S
C485        C486   1.359       .  D
C486       C1063   1.507       .  S
C491        C492   1.537       .  S
C491        C497   1.534       .  S
C491        C495   1.537       .  S
C491       C1043   1.543       .  S
C492        H499   1.080       .  S
C492        C493   1.357       .  D
C493        C494   1.537       .  S
C493       C1083   1.495       .  S
C494        C498   1.545       .  S
C494        C496   1.565       .  S
C494        H500   1.103       .  S
C495        H501   1.084       .  S
C495        C496   1.380       .  D
C496        C543   1.553       .  S
C497        H502   1.087       .  S
C497        C498   1.363       .  D
C498        C993   1.477       .  S
C503        C504   1.532       .  S
C503        C509   1.533       .  S
C503        C507   1.534       .  S
C503        C980   1.545       .  S
C504        H511   1.086       .  S
C504        C505   1.351       .  D
C505        C506   1.538       .  S
C505       C1073   1.473       .  S
C506        C510   1.556       .  S
C506        C508   1.563       .  S
C506        H512   1.105       .  S
C507        H513   1.079       .  S
C507        C508   1.380       .  D
C508        C547   1.559       .  S
C509        H514   1.083       .  S
C509        C510   1.368       .  D
C510       C1053   1.502       .  S
C515        C516   1.520       .  S
C515        C521   1.528       .  S
C515        C519   1.509       .  S
C515       C1013   1.536       .  S
C516        H523   1.081       .  S
C516        C517   1.362       .  D
C517        C518   1.565       .  S
C517       C1030   1.482       .  S
C518        C522   1.554       .  S
C518        C520   1.581       .  S
C518        H524   1.107       .  S
C519        H525   1.068       .  S
C519        C520   1.380       .  D
C520        C541   1.596       .  S
C521        H526   1.085       .  S
C521        C522   1.364       .  D
C522        C973   1.506       .  S
O527        V535   1.902       .  S
O527        C537   1.262       .  A
O528        V535   1.909       .  S
O528        C538   1.264       .  A
O529        V535   1.933       .  S
O529        C539   1.272       .  A
O530        V535   1.934       .  S
O530        C540   1.272       .  A
O531        V536   1.866       .  S
O531        C540   1.258       .  A
O532        V536   1.863       .  S
O532        C539   1.257       .  A
O533        V536   1.904       .  S
O533        C538   1.265       .  A
O534        V536   1.903       .  S
O534        C537   1.265       .  A
V535        V536   2.086       .  T
C537        C983   1.470       .  S
C538        C970   1.476       .  S
C539        C990   1.482       .  S
C540       C1000   1.483       .  S
C541        C553   1.603       .  S
C542        C577   1.545       .  S
C543        C589   1.552       .  S
C544        C565   1.554       .  S
C545        C653   1.568       .  S
C546        C601   1.564       .  S
C547        C627   1.553       .  S
C548        C549   1.521       .  S
C548        C554   1.521       .  S
C548        C552   1.517       .  S
C548        C950   1.542       .  S
C549        H556   1.087       .  S
C549        C550   1.363       .  D
C550        C551   1.557       .  S
C550        C940   1.483       .  S
C551        C555   1.561       .  S
C551        C553   1.587       .  S
C551        H557   1.106       .  S
C552        H558   1.056       .  S
C552        C553   1.390       .  D
C554        H559   1.088       .  S
C554        C555   1.355       .  D
C555        C963   1.502       .  S
C560        C561   1.535       .  S
C560        C566   1.538       .  S
C560        C564   1.536       .  S
C560        C910   1.554       .  S
C561        H568   1.085       .  S
C561        C562   1.361       .  D
C562        C563   1.550       .  S
C562        C933   1.482       .  S
C563        C567   1.540       .  S
C563        C565   1.553       .  S
C563        H569   1.105       .  S
C564        H570   1.080       .  S
C564        C565   1.384       .  D
C566        H571   1.085       .  S
C566        C567   1.364       .  D
C567        C920   1.490       .  S
C572        C573   1.530       .  S
C572        C578   1.536       .  S
C572        C576   1.517       .  S
C572        C890   1.528       .  S
C573        H580   1.083       .  S
C573        C574   1.357       .  D
C574        C575   1.550       .  S
C574        C883   1.483       .  S
C575        C579   1.548       .  S
C575        C577   1.566       .  S
C575        H581   1.106       .  S
C576        H582   1.086       .  S
C576        C577   1.375       .  D
C578        H583   1.086       .  S
C578        C579   1.365       .  D
C579        C903   1.494       .  S
C584        C585   1.535       .  S
C584        C590   1.529       .  S
C584        C588   1.524       .  S
C584        C860   1.529       .  S
C585        H592   1.079       .  S
C585        C586   1.356       .  D
C586        C587   1.542       .  S
C586        C870   1.489       .  S
C587        C591   1.558       .  S
C587        C589   1.574       .  S
C587        H593   1.107       .  S
C588        H594   1.085       .  S
C588        C589   1.375       .  D
C590        H595   1.087       .  S
C590        C591   1.361       .  D
C591        C853   1.493       .  S
C596        C597   1.539       .  S
C596        C602   1.534       .  S
C596        C600   1.540       .  S
C596        C840   1.550       .  S
C597        H604   1.081       .  S
C597        C598   1.364       .  D
C598        C599   1.551       .  S
C598        C820   1.505       .  S
C599        C603   1.548       .  S
C599        C601   1.564       .  S
C599        H605   1.103       .  S
C600        H606   1.085       .  S
C600        C601   1.383       .  D
C602        H607   1.086       .  S
C602        C603   1.358       .  D
C603        C833   1.488       .  S
O608        V616   1.882   1_655  S
O608        C618   1.259       .  A
O609        V616   1.880       .  S
O609        C619   1.261       .  A
O610        V616   1.890       .  S
O610        C620   1.264       .  A
O611        V616   1.888       .  S
O611        C621   1.262   1_455  A
O612        V617   1.895       .  S
O612        C621   1.261   1_455  A
O613        V617   1.894       .  S
O613        C620   1.260       .  A
O614        V617   1.927       .  S
O614        C619   1.272       .  A
O615        V617   1.929       .  S
O615        C618   1.271   1_455  A
V616        V617   2.083       .  T
C618        C823   1.476       .  S
C619        C953   1.492   1_565  S
C620        C863   1.456       .  S
C621        C893   1.454   1_565  S
C622        C623   1.538       .  S
C622        C628   1.536       .  S
C622        C626   1.536       .  S
C622        C800   1.545       .  S
C623        H630   1.085       .  S
C623        C624   1.358       .  D
C624        C625   1.540       .  S
C624        C793   1.476       .  S
C625        C629   1.545       .  S
C625        C627   1.557       .  S
C625        H631   1.101       .  S
C626        H632   1.079       .  S
C626        C627   1.377       .  D
C628        H633   1.083       .  S
C628        C629   1.364       .  D
C629        C810   1.498       .  S
O634        V642   1.900       .  S
O634        C644   1.266   1_556  A
O635        V642   1.901       .  S
O635        C645   1.264       .  A
O636        V642   1.882       .  S
O636        C646   1.260       .  A
O637        V642   1.882       .  S
O637        C647   1.261   1_565  A
O638        V643   1.910       .  S
O638        C647   1.265   1_565  A
O639        V643   1.903       .  S
O639        C646   1.266       .  A
O640        V643   1.923       .  S
O640        C645   1.268       .  A
O641        V643   1.921       .  S
O641        C644   1.269   1_556  A
V642        V643   2.086       .  T
C644        C850   1.497       .  S
C645        C913   1.484   1_565  S
C646        C790   1.472       .  S
C647        C943   1.467   1_556  S
C648        C649   1.535       .  S
C648        C654   1.514       .  S
C648        C652   1.526       .  S
C648        C770   1.536       .  S
C649        H656   1.086       .  S
C649        C650   1.362       .  D
C650        C651   1.549       .  S
C650        C763   1.500       .  S
C651        C655   1.547       .  S
C651        C653   1.571       .  S
C651        H657   1.106       .  S
C652        H658   1.063       .  S
C652        C653   1.395       .  D
C654        H659   1.089       .  S
C654        C655   1.347       .  D
C655        C783   1.471       .  S
O660        V668   1.895       .  S
O660        C670   1.263       .  A
O661        V668   1.905       .  S
O661        C671   1.267       .  A
O662        V668   1.889       .  S
O662        C672   1.263       .  A
O663        V668   1.882       .  S
O663        C673   1.260       .  A
O664        V669   1.910       .  S
O664        C673   1.266       .  A
O665        V669   1.915       .  S
O665        C672   1.267       .  A
O666        V669   1.920       .  S
O666        C671   1.269       .  A
O667        V669   1.916       .  S
O667        C670   1.266       .  A
V668        V669   2.086       .  T
C670        C760   1.476   1_455  S
C671        C960   1.503   1_556  S
C672        C880   1.490   1_456  S
C673        C923   1.464       .  S
C674        C675   1.523       .  S
C674        C680   1.528       .  S
C674        C678   1.529       .  S
C674        C740   1.540       .  S
C675        H682   1.086       .  S
C675        C676   1.358       .  D
C676        C677   1.554       .  S
C676        C730   1.505       .  S
C677        C681   1.560       .  S
C677        C679   1.579       .  S
C677        H683   1.108       .  S
C678        H684   1.069       .  S
C678        C679   1.389       .  D
C679        C728   1.583       .  S
C680        H685   1.087       .  S
C680        C681   1.358       .  D
C681        C750   1.489       .  S
O686        V694   1.877       .  S
O686        C696   1.258   1_556  A
O687        V694   1.877       .  S
O687        C697   1.262       .  A
O688        V694   1.896       .  S
O688        C698   1.263   1_556  A
O689        V694   1.889       .  S
O689        C699   1.261       .  A
O690        V695   1.906       .  S
O690        C699   1.264       .  A
O691        V695   1.919       .  S
O691        C698   1.267   1_556  A
O692        V695   1.924       .  S
O692        C697   1.269       .  A
O693        V695   1.924       .  S
O693        C696   1.270   1_556  A
V694        V695   2.086       .  T
C696        C873   1.473       .  S
C697        C743   1.488   1_455  S
C698        C843   1.477   1_455  S
C699        C813   1.463       .  S
O700        V708   1.910       .  S
O700        C710   1.266   1_566  A
O701        V708   1.915       .  S
O701        C711   1.266       .  A
O702        V708   1.933       .  S
O702        C712   1.273   1_556  A
O703        V708   1.930       .  S
O703        C713   1.270       .  A
O704        V709   1.865       .  S
O704        C713   1.259       .  A
O705        V709   1.879       .  S
O705        C712   1.260   1_556  A
O706        V709   1.897       .  S
O706        C711   1.264       .  A
O707        V709   1.901       .  S
O707        C710   1.264   1_566  A
V708        V709   2.079       .  T
C710        C900   1.474       .  S
C711        C733   1.475       .  S
C712        C830   1.486       .  S
C713        C773   1.485   1_565  S
O714        V722   1.889   1_545  S
O714        C724   1.264   1_455  A
O715        V722   1.898       .  S
O715        C725   1.264       .  A
O716        V722   1.871       .  S
O716        C726   1.258   1_565  A
O717        V722   1.878       .  S
O717        C727   1.260   1_455  A
O718        V723   1.930       .  S
O718        C727   1.272   1_455  A
O719        V723   1.923   1_545  S
O719        C726   1.270       .  A
O720        V723   1.908       .  S
O720        C725   1.264       .  A
O721        V723   1.901   1_545  S
O721        C724   1.263   1_455  A
V722        V723   2.086       .  T
C724        C780   1.475       .  S
C725        C803   1.471       .  S
C726        C930   1.479       .  S
C727        C753   1.487       .  S
C729        C730   1.409       .  A
C729        C734   1.406       .  A
C729        F736   1.353       .  S
C730        C731   1.416       .  A
C731        C732   1.399       .  A
C731        F738   1.355       .  S
C732        C733   1.398       .  A
C732        F737   1.358       .  S
C733        C734   1.405       .  A
C734        F735   1.358       .  S
C739        C740   1.416       .  A
C739        C744   1.384       .  A
C739        F746   1.359       .  S
C740        C741   1.421       .  A
C741        C742   1.413       .  A
C741        F748   1.354       .  S
C742        C743   1.408       .  A
C742        F747   1.357       .  S
C743        C744   1.404       .  A
C744        F745   1.359   1_655  S
C749        C750   1.405       .  A
C749        C754   1.395       .  A
C749        F756   1.355       .  S
C750        C751   1.410       .  A
C751        C752   1.408       .  A
C751        F758   1.352       .  S
C752        C753   1.405       .  A
C752        F757   1.357       .  S
C753        C754   1.409       .  A
C754        F755   1.359       .  S
C759        C760   1.403       .  A
C759        C764   1.401       .  A
C759        F766   1.355   1_655  S
C760        C761   1.401       .  A
C761        C762   1.402       .  A
C761        F768   1.358       .  S
C762        C763   1.415       .  A
C762        F767   1.358       .  S
C763        C764   1.408       .  A
C764        F765   1.355       .  S
C769        C770   1.413       .  A
C769        C774   1.376       .  A
C769        F776   1.361       .  S
C770        C771   1.418       .  A
C771        C772   1.416       .  A
C771        F778   1.353       .  S
C772        C773   1.410       .  A
C772        F777   1.357       .  S
C773        C774   1.404       .  A
C774        F775   1.360       .  S
C779        C780   1.405       .  A
C779        C784   1.389       .  A
C779        F786   1.359   1_655  S
C780        C781   1.407       .  A
C781        C782   1.401       .  A
C781        F788   1.358       .  S
C782        C783   1.405       .  A
C782        F787   1.356       .  S
C783        C784   1.406       .  A
C784        F785   1.357       .  S
C789        C790   1.409       .  A
C789        C794   1.395       .  A
C789        F796   1.358       .  S
C790        C791   1.402       .  A
C791        C792   1.394       .  A
C791        F798   1.358       .  S
C792        C793   1.402       .  A
C792        F797   1.345       .  S
C793        C794   1.404       .  A
C794        F795   1.358       .  S
C799        C800   1.416       .  A
C799        C804   1.399       .  A
C799        F806   1.358       .  S
C800        C801   1.418       .  A
C801        C802   1.403       .  A
C801        F808   1.358       .  S
C802        C803   1.400       .  A
C802        F807   1.358       .  S
C803        C804   1.401       .  A
C804        F805   1.358       .  S
C809        C810   1.411       .  A
C809        C814   1.396       .  A
C809        F816   1.355       .  S
C810        C811   1.416       .  A
C811        C812   1.396       .  A
C811        F818   1.354       .  S
C812        C813   1.397       .  A
C812        F817   1.359       .  S
C813        C814   1.398       .  A
C814        F815   1.353       .  S
C819        C820   1.416       .  A
C819        C824   1.401       .  A
C819        F826   1.358       .  S
C820        C821   1.407       .  A
C821        C822   1.404       .  A
C821        F828   1.354       .  S
C822        C823   1.407       .  A
C822        F827   1.357       .  S
C823        C824   1.401       .  A
C824        F825   1.358   1_655  S
C829        C830   1.407       .  A
C829        C834   1.410       .  A
C829        F836   1.357       .  S
C830        C831   1.409       .  A
C831        C832   1.396       .  A
C831        F838   1.359       .  S
C832        C833   1.403       .  A
C832        F837   1.355       .  S
C833        C834   1.409       .  A
C834        F835   1.356       .  S
C839        C840   1.416       .  A
C839        C844   1.405       .  A
C839        F846   1.355       .  S
C840        C841   1.420       .  A
C841        C842   1.400       .  A
C841        F848   1.357       .  S
C842        C843   1.400       .  A
C842        F847   1.358   1_655  S
C843        C844   1.402       .  A
C844        F845   1.358   1_554  S
C849        C850   1.413       .  A
C849        C854   1.412       .  A
C849        F856   1.357       .  S
C850        C851   1.410       .  A
C851        C852   1.398       .  A
C851        F858   1.358       .  S
C852        C853   1.407       .  A
C852        F857   1.359       .  S
C853        C854   1.405       .  A
C854        F855   1.353       .  S
C859        C860   1.419       .  A
C859        C864   1.388       .  A
C859        F866   1.356       .  S
C860        C861   1.412       .  A
C861        C862   1.398       .  A
C861        F868   1.357       .  S
C862        C863   1.401       .  A
C862        F867   1.358       .  S
C863        C864   1.394       .  A
C864        F865   1.358       .  S
C869        C870   1.399       .  A
C869        C874   1.399       .  A
C869        F876   1.356       .  S
C870        C871   1.411       .  A
C871        C872   1.399       .  A
C871        F878   1.348       .  S
C872        C873   1.397       .  A
C872        F877   1.358       .  S
C873        C874   1.409       .  A
C874        F875   1.353   1_554  S
C879        C880   1.410       .  A
C879        C884   1.393       .  A
C879        F886   1.358   1_554  S
C880        C881   1.411       .  A
C881        C882   1.407       .  A
C881        F888   1.357       .  S
C882        C883   1.406       .  A
C882        F887   1.356       .  S
C883        C884   1.405       .  A
C884        F885   1.356       .  S
C889        C890   1.413       .  A
C889        C894   1.396       .  A
C889        F896   1.358       .  S
C890        C891   1.417       .  A
C891        C892   1.393       .  A
C891        F898   1.356       .  S
C892        C893   1.396       .  A
C892        F897   1.359   1_655  S
C893        C894   1.398       .  A
C894        F895   1.357   1_545  S
C899        C900   1.400       .  A
C899        C904   1.398       .  A
C899        F906   1.358   1_545  S
C900        C901   1.407       .  A
C901        C902   1.405       .  A
C901        F908   1.358   1_554  S
C902        C903   1.407       .  A
C902        F907   1.356       .  S
C903        C904   1.412       .  A
C904        F905   1.358       .  S
C909        C910   1.419       .  A
C909        C914   1.406       .  A
C909        F916   1.357       .  S
C910        C911   1.418       .  A
C911        C912   1.405       .  A
C911        F918   1.358       .  S
C912        C913   1.403       .  A
C912        F917   1.356       .  S
C913        C914   1.402       .  A
C914        F915   1.358   1_545  S
C919        C920   1.412       .  A
C919        C924   1.396       .  A
C919        F926   1.353       .  S
C920        C921   1.406       .  A
C921        C922   1.396       .  A
C921        F928   1.356       .  S
C922        C923   1.403       .  A
C922        F927   1.356       .  S
C923        C924   1.398       .  A
C924        F925   1.358       .  S
C929        C930   1.404       .  A
C929        C934   1.405       .  A
C929        F936   1.357       .  S
C930        C931   1.409       .  A
C931        C932   1.389       .  A
C931        F938   1.359       .  S
C932        C933   1.402       .  A
C932        F937   1.357       .  S
C933        C934   1.411       .  A
C934        F935   1.352       .  S
C939        C940   1.414       .  A
C939        C944   1.399       .  A
C939        F946   1.358       .  S
C940        C941   1.402       .  A
C941        C942   1.393       .  A
C941        F948   1.355       .  S
C942        C943   1.404       .  A
C942        F947   1.357   1_554  S
C943        C944   1.400       .  A
C944        F945   1.358   1_545  S
C949        C950   1.414       .  A
C949        C954   1.389       .  A
C949        F956   1.359       .  S
C950        C951   1.421       .  A
C951        C952   1.409       .  A
C951        F958   1.354       .  S
C952        C953   1.407       .  A
C952        F957   1.357       .  S
C953        C954   1.408       .  A
C954        F955   1.359   1_545  S
C959        C960   1.414       .  A
C959        C964   1.410       .  A
C959        F966   1.357       .  S
C960        C961   1.412       .  A
C961        C962   1.401       .  A
C961        F968   1.358   1_554  S
C962        C963   1.410       .  A
C962        F967   1.358       .  S
C963        C964   1.401       .  A
C964        F965   1.345       .  S
C969        C970   1.398       .  A
C969        C974   1.398       .  A
C969        F976   1.358       .  S
C970        C971   1.405       .  A
C971        C972   1.407       .  A
C971        F978   1.358       .  S
C972        C973   1.413       .  A
C972        F977   1.356       .  S
C973        C974   1.417       .  A
C974        F975   1.359       .  S
C979        C980   1.416       .  A
C979        C984   1.403       .  A
C979        F986   1.358       .  S
C980        C981   1.419       .  A
C981        C982   1.397       .  A
C981        F988   1.354       .  S
C982        C983   1.396       .  A
C982        F987   1.358       .  S
C983        C984   1.402       .  A
C984        F985   1.358       .  S
C989        C990   1.408       .  A
C989        C994   1.410       .  A
C989        F996   1.357       .  S
C990        C991   1.410       .  A
C991        C992   1.386       .  A
C991        F998   1.359       .  S
C992        C993   1.398       .  A
C992        F997   1.358       .  S
C993        C994   1.407       .  A
C994        F995   1.354       .  S
C999       C1000   1.408       .  A
C999       C1004   1.389       .  A
C999       F1006   1.360       .  S
C1000      C1001   1.405       .  A
C1001      C1002   1.411       .  A
C1001      F1008   1.357       .  S
C1002      C1003   1.411       .  A
C1002      F1007   1.356       .  S
C1003      C1004   1.402       .  A
C1004      F1005   1.356       .  S
C1009      C1010   1.397       .  A
C1009      C1014   1.401       .  A
C1009      F1016   1.358       .  S
C1010      C1011   1.404       .  A
C1011      C1012   1.391       .  A
C1011      F1018   1.355       .  S
C1012      C1013   1.408       .  A
C1012      F1017   1.355       .  S
C1013      C1014   1.422       .  A
C1014      F1015   1.356       .  S
C1019      C1020   1.404       .  A
C1019      C1024   1.390       .  A
C1019      F1026   1.358       .  S
C1020      C1021   1.416       .  A
C1021      C1022   1.417       .  A
C1021      F1028   1.357       .  S
C1022      C1023   1.416       .  A
C1022      F1027   1.353       .  S
C1023      C1024   1.418       .  A
C1024      F1025   1.360       .  S
C1029      C1030   1.406       .  A
C1029      C1034   1.397       .  A
C1029      F1036   1.355       .  S
C1030      C1031   1.407       .  A
C1031      C1032   1.401       .  A
C1031      F1038   1.346       .  S
C1032      C1033   1.403       .  A
C1032      F1037   1.358       .  S
C1033      C1034   1.409       .  A
C1034      F1035   1.358       .  S
C1039      C1040   1.395       .  A
C1039      C1044   1.395       .  A
C1039      F1046   1.358       .  S
C1040      C1041   1.405       .  A
C1041      C1042   1.403       .  A
C1041      F1048   1.358       .  S
C1042      C1043   1.413       .  A
C1042      F1047   1.357       .  S
C1043      C1044   1.424       .  A
C1044      F1045   1.357       .  S
C1049      C1050   1.402       .  A
C1049      C1054   1.401       .  A
C1049      F1056   1.356       .  S
C1050      C1051   1.399       .  A
C1051      C1052   1.400       .  A
C1051      F1058   1.357       .  S
C1052      C1053   1.415       .  A
C1052      F1057   1.355       .  S
C1053      C1054   1.408       .  A
C1054      F1055   1.352       .  S
C1059      C1060   1.401       .  A
C1059      C1064   1.405       .  A
C1059      F1066   1.358       .  S
C1060      C1061   1.408       .  A
C1061      C1062   1.407       .  A
C1061      F1068   1.357       .  S
C1062      C1063   1.406       .  A
C1062      F1067   1.352       .  S
C1063      C1064   1.416       .  A
C1064      F1065   1.355       .  S
C1069      C1070   1.407       .  A
C1069      C1074   1.390       .  A
C1069      F1076   1.359       .  S
C1070      C1071   1.401       .  A
C1071      C1072   1.402       .  A
C1071      F1078   1.357       .  S
C1072      C1073   1.407       .  A
C1072      F1077   1.352       .  S
C1073      C1074   1.403       .  A
C1074      F1075   1.357       .  S
C1079      C1080   1.400       .  A
C1079      C1084   1.396       .  A
C1079      F1086   1.358       .  S
C1080      C1081   1.407       .  A
C1081      C1082   1.403       .  A
C1081      F1088   1.358       .  S
C1082      C1083   1.405       .  A
C1082      F1087   1.355       .  S
C1083      C1084   1.409       .  A
C1084      F1085   1.350       .  S
C1089      C1090   1.399       .  A
C1089      C1094   1.402       .  A
C1089      F1096   1.352       .  S
C1090      C1091   1.404       .  A
C1091      C1092   1.392       .  A
C1091      F1098   1.359       .  S
C1092      C1093   1.410       .  A
C1092      F1097   1.358       .  S
C1093      C1094   1.411       .  A
C1094      F1095   1.357       .  S
C1099      C1100   1.405       .  A
C1099      C1104   1.399       .  A
C1099      F1106   1.355       .  S
C1100      C1101   1.411       .  A
C1101      C1102   1.401       .  A
C1101      F1108   1.357       .  S
C1102      C1103   1.402       .  A
C1102      F1107   1.357       .  S
C1103      C1104   1.406       .  A
C1104      F1105   1.356   1_655  S
C1109      C1110   1.417       .  A
C1109      C1114   1.401       .  A
C1109      F1116   1.357       .  S
C1110      C1111   1.419       .  A
C1111      C1112   1.400       .  A
C1111      F1118   1.358       .  S
C1112      C1113   1.400       .  A
C1112      F1117   1.358       .  S
C1113      C1114   1.400       .  A
C1114      F1115   1.357       .  S
C1119      C1120   1.417       .  A
C1119      C1124   1.415       .  A
C1119      F1126   1.355       .  S
C1120      C1121   1.412       .  A
C1121      C1122   1.381       .  A
C1121      F1128   1.357       .  S
C1122      C1123   1.406       .  A
C1122      F1127   1.359   1_655  S
C1123      C1124   1.413       .  A
C1124      F1125   1.357       .  S
C1129      C1130   1.413       .  A
C1129      C1134   1.416       .  A
C1129      F1136   1.357       .  S
C1130      C1131   1.411       .  A
C1131      C1132   1.387       .  A
C1131      F1138   1.359       .  S
C1132      C1133   1.405       .  A
C1132      F1137   1.357       .  S
C1133      C1134   1.409       .  A
C1134      F1135   1.353       .  S
C1139      C1140   1.407       .  A
C1139      C1144   1.404       .  A
C1139      F1146   1.358       .  S
C1140      C1141   1.403       .  A
C1141      C1142   1.402       .  A
C1141      F1148   1.358       .  S
C1142      C1143   1.409       .  A
C1142      F1147   1.352       .  S
C1143      C1144   1.406       .  A
C1144      F1145   1.353       .  S
C1149      C1150   1.415       .  A
C1149      C1154   1.395       .  A
C1149      F1156   1.352       .  S
C1150      C1151   1.414       .  A
C1151      C1152   1.397       .  A
C1151      F1158   1.355       .  S
C1152      C1153   1.399       .  A
C1152      F1157   1.358       .  S
C1153      C1154   1.396       .  A
C1154      F1155   1.358       .  S
C1159      C1160   1.417       .  A
C1159      C1164   1.399       .  A
C1159      F1166   1.358       .  S
C1160      C1161   1.407       .  A
C1161      C1162   1.402       .  A
C1161      F1168   1.355       .  S
C1162      C1163   1.405       .  A
C1162      F1167   1.353       .  S
C1163      C1164   1.398       .  A
C1164      F1165   1.358       .  S
C1169      C1170   1.411       .  A
C1169      C1174   1.406       .  A
C1169      F1176   1.357       .  S
C1170      C1171   1.409       .  A
C1171      C1172   1.400       .  A
C1171      F1178   1.358   1_655  S
C1172      C1173   1.406       .  A
C1172      F1177   1.356       .  S
C1173      C1174   1.404       .  A
C1174      F1175   1.355       .  S
C1179      C1180   1.417       .  A
C1179      C1184   1.404       .  A
C1179      F1186   1.356       .  S
C1180      C1181   1.416       .  A
C1181      C1182   1.404       .  A
C1181      F1188   1.353       .  S
C1182      C1183   1.400       .  A
C1182      F1187   1.357   1_655  S
C1183      C1184   1.403       .  A
C1184      F1185   1.357       .  S
C1189      C1190   1.401       .  A
C1189      C1194   1.404       .  A
C1189      F1196   1.357       .  S
C1190      C1191   1.408       .  A
C1191      C1192   1.404       .  A
C1191      F1198   1.358       .  S
C1192      C1193   1.409       .  A
C1192      F1197   1.355       .  S
C1193      C1194   1.414       .  A
C1194      F1195   1.355       .  S
C1199      C1200   1.404       .  A
C1199      C1204   1.408       .  A
C1199      F1206   1.352       .  S
C1200      C1201   1.400       .  A
C1201      C1202   1.392       .  A
C1201      F1208   1.358       .  S
C1202      C1203   1.413       .  A
C1202      F1207   1.359       .  S
C1203      C1204   1.408       .  A
C1204      F1205   1.357       .  S
C1209      C1210   1.411       .  A
C1209      C1214   1.398       .  A
C1209      F1216   1.353       .  S
C1210      C1211   1.408       .  A
C1211      C1212   1.407       .  A
C1211      F1218   1.356       .  S
C1212      C1213   1.408       .  A
C1212      F1217   1.358       .  S
C1213      C1214   1.399       .  A
C1214      F1215   1.358       .  S
C1219      C1220   1.415       .  A
C1219      C1224   1.397       .  A
C1219      F1226   1.358       .  S
C1220      C1221   1.415       .  A
C1221      C1222   1.400       .  A
C1221      F1228   1.358       .  S
C1222      C1223   1.401       .  A
C1222      F1227   1.358       .  S
C1223      C1224   1.399       .  A
C1224      F1225   1.355       .  S
C1229      C1230   1.404       .  A
C1229      C1234   1.396       .  A
C1229      F1236   1.357       .  S
C1230      C1231   1.403       .  A
C1231      C1232   1.407       .  A
C1231      F1238   1.352       .  S
C1232      C1233   1.414       .  A
C1232      F1237   1.358       .  S
C1233      C1234   1.411       .  A
C1234      F1235   1.357       .  S
C1239      C1240   1.413       .  A
C1239      C1244   1.410       .  A
C1239      F1246   1.358       .  S
C1240      C1241   1.405       .  A
C1241      C1242   1.391       .  A
C1241      F1248   1.358       .  S
C1242      C1243   1.418       .  A
C1242      F1247   1.359       .  S
C1243      C1244   1.413       .  A
C1244      F1245   1.351       .  S
C1249      C1250   1.415       .  A
C1249      C1254   1.401       .  A
C1249      F1256   1.359       .  S
C1250      C1251   1.402       .  A
C1251      C1252   1.401       .  A
C1251      F1258   1.352       .  S
C1252      C1253   1.405       .  A
C1252      F1257   1.353       .  S
C1253      C1254   1.401       .  A
C1254      F1255   1.358       .  S
C1259      C1260   1.405       .  A
C1259      C1264   1.396       .  A
C1259      F1266   1.355       .  S
C1260      C1261   1.410       .  A
C1261      C1262   1.401       .  A
C1261      F1268   1.353       .  S
C1262      C1263   1.404       .  A
C1262      F1267   1.358       .  S
C1263      C1264   1.406       .  A
C1264      F1265   1.359       .  S
C1269      C1270   1.412       .  A
C1269      C1274   1.402       .  A
C1269      F1276   1.358       .  S
C1270      C1271   1.417       .  A
C1271      C1272   1.399       .  A
C1271      F1278   1.358       .  S
C1272      C1273   1.399       .  A
C1272      F1277   1.358       .  S
C1273      C1274   1.402       .  A
C1274      F1275   1.354       .  S
C1279      C1280   1.409       .  A
C1279      C1284   1.393       .  A
C1279      F1286   1.359       .  S
C1280      C1281   1.408       .  A
C1281      C1282   1.402       .  A
C1281      F1288   1.357       .  S
C1282      C1283   1.403       .  A
C1282      F1287   1.354       .  S
C1283      C1284   1.406       .  A
C1284      F1285   1.358       .  S
C1289      C1290   1.410       .  A
C1289      C1294   1.400       .  A
C1289      F1296   1.355       .  S
C1290      C1291   1.413       .  A
C1291      C1292   1.404       .  A
C1291      F1298   1.355       .  S
C1292      C1293   1.403       .  A
C1292      F1297   1.358       .  S
C1293      C1294   1.403       .  A
C1294      F1295   1.358       .  S
C1299      C1300   1.401       .  A
C1299      C1304   1.404       .  A
C1299      F1306   1.355       .  S
C1300      C1301   1.400       .  A
C1301      C1302   1.402       .  A
C1301      F1308   1.358       .  S
C1302      C1303   1.420       .  A
C1302      F1307   1.354       .  S
C1303      C1304   1.416       .  A
C1304      F1305   1.358       .  S
C1309      C1310   1.404       .  A
C1309      C1314   1.398       .  A
C1309      F1316   1.357       .  S
C1310      C1311   1.405       .  A
C1311      C1312   1.411       .  A
C1311      F1318   1.355       .  S
C1312      C1313   1.411       .  A
C1312      F1317   1.357       .  S
C1313      C1314   1.412       .  A
C1314      F1315   1.358       .  S
C1319      C1320   1.404       .  A
C1319      C1324   1.402       .  A
C1319      F1326   1.358       .  S
C1320      C1321   1.403       .  A
C1321      C1322   1.402       .  A
C1321      F1328   1.358       .  S
C1322      C1323   1.413       .  A
C1322      F1327   1.359       .  S
C1323      C1324   1.408       .  A
C1324      F1325   1.355       .  S
C1329      C1330   1.406       .  A
C1329      C1334   1.402       .  A
C1329      F1336   1.358       .  S
C1330      C1331   1.402       .  A
C1331      C1332   1.397       .  A
C1331      F1338   1.358       .  S
C1332      C1333   1.406       .  A
C1332      F1337   1.352       .  S
C1333      C1334   1.405       .  A
C1334      F1335   1.353       .  S
C1339      C1340   1.411       .  A
C1339      C1344   1.397       .  A
C1339      F1346   1.355       .  S
C1340      C1341   1.420       .  A
C1341      C1342   1.399       .  A
C1341      F1348   1.357       .  S
C1342      C1343   1.398       .  A
C1342      F1347   1.358       .  S
C1343      C1344   1.402       .  A
C1344      F1345   1.356       .  S
C1349      C1350   1.416       .  A
C1349      C1354   1.412       .  A
C1349      F1356   1.357       .  S
C1350      C1351   1.410       .  A
C1351      C1352   1.387       .  A
C1351      F1358   1.358       .  S
C1352      C1353   1.407       .  A
C1352      F1357   1.359       .  S
C1353      C1354   1.403       .  A
C1354      F1355   1.357       .  S
C1359      C1360   1.405       .  A
C1359      C1364   1.402       .  A
C1359      F1366   1.356       .  S
C1360      C1361   1.409       .  A
C1361      C1362   1.404       .  A
C1361      F1368   1.354       .  S
C1362      C1363   1.407       .  A
C1362      F1367   1.358       .  S
C1363      C1364   1.412       .  A
C1364      F1365   1.358       .  S
C1369      C1370   1.403       .  A
C1369      C1374   1.405       .  A
C1369      F1376   1.353       .  S
C1370      C1371   1.400       .  A
C1371      C1372   1.401       .  A
C1371      F1378   1.358       .  S
C1372      C1373   1.418       .  A
C1372      F1377   1.358       .  S
C1373      C1374   1.413       .  A
C1374      F1375   1.355       .  S
C1379      C1380   1.415       .  A
C1379      C1384   1.404       .  A
C1379      F1386   1.358       .  S
C1380      C1381   1.419       .  A
C1381      C1382   1.401       .  A
C1381      F1388   1.356       .  S
C1382      C1383   1.400       .  A
C1382      F1387   1.358   1_545  S
C1383      C1384   1.403       .  A
C1384      F1385   1.356       .  S
C1389      C1390   1.412       .  A
C1389      C1394   1.408       .  A
C1389      F1396   1.357       .  S
C1390      C1391   1.407       .  A
C1391      C1392   1.390       .  A
C1391      F1398   1.358       .  S
C1392      C1393   1.407       .  A
C1392      F1397   1.357       .  S
C1393      C1394   1.406       .  A
C1394      F1395   1.356       .  S
C1399      C1400   1.407       .  A
C1399      C1404   1.402       .  A
C1399      F1406   1.355       .  S
C1400      C1401   1.408       .  A
C1401      C1402   1.399       .  A
C1401      F1408   1.355       .  S
C1402      C1403   1.402       .  A
C1402      F1407   1.358       .  S
C1403      C1404   1.404       .  A
C1404      F1405   1.357       .  S
C1409      C1410   1.398       .  A
C1409      C1414   1.397       .  A
C1409      F1416   1.358       .  S
C1410      C1411   1.401   1_545  A
C1411      C1412   1.396   1_565  A
C1411      F1418   1.358       .  S
C1412      C1413   1.414       .  A
C1412      F1417   1.354       .  S
C1413      C1414   1.414       .  A
C1414      F1415   1.352       .  S
C1419      C1420   1.407       .  A
C1419      C1424   1.407       .  A
C1419      F1426   1.355       .  S
C1420      C1421   1.403       .  A
C1421      C1422   1.393       .  A
C1421      F1428   1.354       .  S
C1422      C1423   1.407       .  A
C1422      F1427   1.359   1_545  S
C1423      C1424   1.408       .  A
C1424      F1425   1.358       .  S
C1429      C1430   1.406       .  A
C1429      C1434   1.406       .  A
C1429      F1436   1.357   1_545  S
C1430      C1431   1.400       .  A
C1431      C1432   1.395       .  A
C1431      F1438   1.358       .  S
C1432      C1433   1.413       .  A
C1432      F1437   1.358       .  S
C1433      C1434   1.407       .  A
C1434      F1435   1.356       .  S
C1439      C1440   1.399       .  A
C1439      C1444   1.397       .  A
C1439      F1446   1.357       .  S
C1440      C1441   1.398       .  A
C1441      C1442   1.394       .  A
C1441      F1448   1.353       .  S
C1442      C1443   1.414       .  A
C1442      F1447   1.358       .  S
C1443      C1444   1.414       .  A
C1444      F1445   1.354       .  S
C1449      C1450   1.414       .  A
C1449      C1454   1.396       .  A
C1449      F1456   1.355       .  S
C1450      C1451   1.419       .  A
C1451      C1452   1.406       .  A
C1451      F1458   1.358       .  S
C1452      C1453   1.401       .  A
C1452      F1457   1.357       .  S
C1453      C1454   1.402       .  A
C1454      F1455   1.354       .  S
C1459      C1460   1.401       .  A
C1459      C1464   1.386       .  A
C1459      F1466   1.359       .  S
C1460      C1461   1.402       .  A
C1461      C1462   1.402       .  A
C1461      F1468   1.351       .  S
C1462      C1463   1.409       .  A
C1462      F1467   1.357       .  S
C1463      C1464   1.411       .  A
C1464      F1465   1.359       .  S
C1469      C1470   1.411       .  A
C1469      C1474   1.401       .  A
C1469      F1476   1.354       .  S
C1470      C1471   1.409       .  A
C1471      C1472   1.408       .  A
C1471      F1478   1.353       .  S
C1472      C1473   1.406       .  A
C1472      F1477   1.357       .  S
C1473      C1474   1.403       .  A
C1474      F1475   1.357       .  S
C1479      C1480   1.398       .  A
C1479      C1484   1.399       .  A
C1479      F1486   1.358       .  S
C1480      C1481   1.400       .  A
C1481      C1482   1.395       .  A
C1481      F1488   1.358       .  S
C1482      C1483   1.412       .  A
C1482      F1487   1.355       .  S
C1483      C1484   1.418       .  A
C1484      F1485   1.359       .  S
C1489      C1490   1.416       .  A
C1489      C1494   1.403       .  A
C1489      F1496   1.355       .  S
C1490      C1491   1.415       .  A
C1491      C1492   1.393       .  A
C1491      F1498   1.353       .  S
C1492      C1493   1.395       .  A
C1492      F1497   1.359       .  S
C1493      C1494   1.400       .  A
C1494      F1495   1.358       .  S
C1499      C1500   1.411       .  A
C1499      C1504   1.401       .  A
C1499      F1506   1.351       .  S
C1500      C1501   1.406       .  A
C1501      C1502   1.397       .  A
C1501      F1508   1.355       .  S
C1502      C1503   1.407       .  A
C1502      F1507   1.359       .  S
C1503      C1504   1.402       .  A
C1504      F1505   1.358       .  S
C1509      C1510   1.406       .  A
C1509      C1514   1.393       .  A
C1509      F1516   1.359       .  S
C1510      C1511   1.405       .  A
C1511      C1512   1.411       .  A
C1511      F1518   1.354       .  S
C1512      C1513   1.413       .  A
C1512      F1517   1.357       .  S
C1513      C1514   1.412       .  A
C1514      F1515   1.358       .  S
C1519      C1520   1.410       .  A
C1519      C1524   1.402       .  A
C1519      F1526   1.356       .  S
C1520      C1521   1.402       .  A
C1521      C1522   1.398       .  A
C1521      F1528   1.355       .  S
C1522      C1523   1.409       .  A
C1522      F1527   1.358       .  S
C1523      C1524   1.404       .  A
C1524      F1525   1.357       .  S
C1529      C1530   1.419       .  A
C1529      C1534   1.401       .  A
C1529      F1536   1.358       .  S
C1530      C1531   1.418       .  A
C1531      C1532   1.397       .  A
C1531      F1538   1.351       .  S
C1532      C1533   1.400       .  A
C1532      F1537   1.359       .  S
C1533      C1534   1.399       .  A
C1534      F1535   1.358       .  S
C1539      C1540   1.413       .  A
C1539      C1544   1.420       .  A
C1539      F1546   1.354       .  S
C1540      C1541   1.420       .  A
C1541      C1542   1.382       .  A
C1541      F1548   1.359       .  S
C1542      C1543   1.403       .  A
C1542      F1547   1.359       .  S
C1543      C1544   1.417       .  A
C1544      F1545   1.357       .  S
C1549      C1550   1.407       .  A
C1549      C1554   1.407       .  A
C1549      F1556   1.355       .  S
C1550      C1551   1.400       .  A
C1551      C1552   1.401       .  A
C1551      F1558   1.358       .  S
C1552      C1553   1.414       .  A
C1552      F1557   1.353       .  S
C1553      C1554   1.408       .  A
C1554      F1555   1.354       .  S
C1559      C1560   1.403       .  A
C1559      C1564   1.402       .  A
C1559      F1566   1.349       .  S
C1560      C1561   1.407       .  A
C1561      C1562   1.394       .  A
C1561      F1568   1.357       .  S
C1562      C1563   1.409       .  A
C1562      F1567   1.358       .  S
C1563      C1564   1.409       .  A
C1564      F1565   1.358       .  S
C1569      C1570   1.407       .  A
C1569      C1574   1.399       .  A
C1569      F1576   1.357       .  S
C1570      C1571   1.404       .  A
C1571      C1572   1.408       .  A
C1571      F1578   1.357       .  S
C1572      C1573   1.414       .  A
C1572      F1577   1.357       .  S
C1573      C1574   1.410       .  A
C1574      F1575   1.358       .  S
C1579      C1580   1.400       .  A
C1579      C1584   1.397       .  A
C1579      F1586   1.359   1_554  S
C1580      C1581   1.404       .  A
C1581      C1582   1.404       .  A
C1581      F1588   1.358       .  S
C1582      C1583   1.413       .  A
C1582      F1587   1.355       .  S
C1583      C1584   1.412       .  A
C1584      F1585   1.353       .  S
C1589      C1590   1.416       .  A
C1589      C1594   1.403       .  A
C1589      F1596   1.357       .  S
C1590      C1591   1.415       .  A
C1591      C1592   1.399       .  A
C1591      F1598   1.358       .  S
C1592      C1593   1.400       .  A
C1592      F1597   1.353       .  S
C1593      C1594   1.401       .  A
C1594      F1595   1.355   1_554  S
C1599      C1600   1.405       .  A
C1599      C1604   1.398       .  A
C1599      F1606   1.356       .  S
C1600      C1601   1.408       .  A
C1601      C1602   1.411       .  A
C1601      F1608   1.352       .  S
C1602      C1603   1.409       .  A
C1602      F1607   1.357       .  S
C1603      C1604   1.412       .  A
C1604      F1605   1.358   1_554  S
C1609      C1610   1.401       .  A
C1609      C1614   1.401       .  A
C1609      F1616   1.358       .  S
C1610      C1611   1.406       .  A
C1611      C1612   1.403       .  A
C1611      F1618   1.358   1_554  S
C1612      C1613   1.407       .  A
C1612      F1617   1.356       .  S
C1613      C1614   1.413       .  A
C1614      F1615   1.355       .  S
C1619      C1620   1.418       .  A
C1619      C1624   1.404       .  A
C1619      F1626   1.357       .  S
C1620      C1621   1.418       .  A
C1621      C1622   1.407       .  A
C1621      F1628   1.358       .  S
C1622      C1623   1.404       .  A
C1622      F1627   1.357       .  S
C1623      C1624   1.402       .  A
C1624      F1625   1.358       .  S
C1629      C1630   1.401       .  A
C1629      C1634   1.404       .  A
C1629      F1636   1.357       .  S
C1630      C1631   1.406       .  A
C1631      C1632   1.395       .  A
C1631      F1638   1.357       .  S
C1632      C1633   1.409       .  A
C1632      F1637   1.358       .  S
C1633      C1634   1.413       .  A
C1634      F1635   1.357       .  S
C1639      C1640   1.415       .  A
C1639      C1644   1.398       .  A
C1639      F1646   1.356       .  S
C1640      C1641   1.412       .  A
C1641      C1642   1.402       .  A
C1641      F1648   1.354       .  S
C1642      C1643   1.402       .  A
C1642      F1647   1.357       .  S
C1643      C1644   1.400       .  A
C1644      F1645   1.359       .  S
C1649      C1650   1.417       .  A
C1649      C1654   1.396       .  A
C1649      F1656   1.353       .  S
C1650      C1651   1.417       .  A
C1651      C1652   1.403       .  A
C1651      F1658   1.357       .  S
C1652      C1653   1.401       .  A
C1652      F1657   1.358   1_554  S
C1653      C1654   1.396       .  A
C1654      F1655   1.358       .  S
C1659      C1660   1.411       .  A
C1659      C1664   1.401       .  A
C1659      F1666   1.358       .  S
C1660      C1661   1.418       .  A
C1661      C1662   1.392       .  A
C1661      F1668   1.357       .  S
C1662      C1663   1.395       .  A
C1662      F1667   1.358       .  S
C1663      C1664   1.403       .  A
C1664      F1665   1.354   1_554  S
C1669      C1670   1.407       .  A
C1669      C1674   1.399       .  A
C1669      F1676   1.357       .  S
C1670      C1671   1.409       .  A
C1671      C1672   1.404       .  A
C1671      F1678   1.353       .  S
C1672      C1673   1.405       .  A
C1672      F1677   1.358       .  S
C1673      C1674   1.409       .  A
C1674      F1675   1.358       .  S
C1679      C1680   1.404       .  A
C1679      C1684   1.402       .  A
C1679      F1686   1.353       .  S
C1680      C1681   1.403       .  A
C1681      C1682   1.405       .  A
C1681      F1688   1.356   1_554  S
C1682      C1683   1.415       .  A
C1682      F1687   1.357       .  S
C1683      C1684   1.408       .  A
C1684      F1685   1.355       .  S
