geometry optimzed in LAMMPS
_audit_creation_date              2020-11-30 
_audit_creation_method            'lammps2cif' 
_symmetry_space_group_name_H-M    'P1' 
_symmetry_Int_Tables_number       1 
_symmetry_cell_setting            triclinic 
loop_ 
_symmetry_equiv_pos_as_xyz 
  x,y,z 
_cell_length_a                    36.79783693 
_cell_length_b                    37.537760882611856 
_cell_length_c                    36.43238142907437 
_cell_angle_alpha                 89.7930045149996 
_cell_angle_beta                  89.82674351298851 
_cell_angle_gamma                 89.9052731194225 
loop_ 
_atom_site_label 
_atom_site_type_symbol 
_atom_site_fract_x 
_atom_site_fract_y 
_atom_site_fract_z 
_atom_site_charge 
O1          O  0.58356397  0.00447140  0.45306061    -0.80500
O2          O  0.44313832  0.95587071  0.50191475    -0.80500
O3          O  0.51273602  0.94840225  0.53681236    -0.80500
O4          O  0.49161204  0.95239290  0.43480641    -0.80500
O5          O  0.47377035  0.97964656  0.56607070    -0.80600
O6          O  0.52569838  0.99423051  0.40909443    -0.80500
O7          O  0.41746670  0.96432853  0.44837685    -0.80500
O8          O  0.57067569  0.95800730  0.48796208    -0.80600
C9          C  0.59155399  0.97354616  0.46503451     1.09200
C10         C  0.41673647  0.94946445  0.47995769     1.09100
C11         C  0.49724617  0.95491592  0.56670600     1.09200
C12         C  0.51002235  0.96380241  0.40764358     1.09100
O13         O  0.49176093  0.05812329  0.44041709    -0.80500
O14         O  0.47999494  0.04991670  0.53739425    -0.80600
O15         O  0.58093977  0.02642976  0.51817835    -0.80500
O16         O  0.42807806  0.02983458  0.47777788    -0.80500
O17         O  0.41323801  0.01462201  0.53411193    -0.80600
O18         O  0.55215591  0.06702992  0.48528909    -0.80500
O19         O  0.46108486  0.01826211  0.41216564    -0.80500
O20         O  0.52506528  0.02174754  0.56496814    -0.80600
Co21       Co  0.53633032  0.03068389  0.44898200     1.51500
Co22       Co  0.46234963  0.00493983  0.51762331     1.51700
Co23       Co  0.54501797  0.98811707  0.52496244     1.51600
Co24       Co  0.46219767  0.98924422  0.45952511     1.51500
O25         O  0.50828177  0.00367063  0.48721381    -1.42400
C26         C  0.47709057  0.04814370  0.41111585     1.09100
C27         C  0.50164216  0.04723412  0.56416086     1.09200
C28         C  0.57686010  0.05834193  0.50783996     1.09100
C29         C  0.40441067  0.02918006  0.50388313     1.09100
O30         O  0.98534417  0.54899737  0.53237913    -0.80500
O31         O  0.98324696  0.40701571  0.48173986    -0.80500
O32         O  0.95851221  0.50569791  0.47017975    -0.80500
O33         O  0.96429872  0.48493598  0.57509967    -0.80500
O34         O  0.98416309  0.46429216  0.43612107    -0.80600
O35         O  0.01011616  0.51482402  0.59410941    -0.80500
O36         O  0.94973737  0.42998410  0.52654836    -0.80500
O37         O  0.99325157  0.57112947  0.47700326    -0.80600
C38         C  0.98161243  0.57508341  0.50973071     1.09200
C39         C  0.95371919  0.40890188  0.49962112     1.09100
C40         C  0.95952435  0.48817803  0.44059124     1.09200
C41         C  0.97992732  0.50001866  0.60140996     1.09100
O42         O  0.07205702  0.48820751  0.55488900    -0.80500
O43         O  0.06195616  0.47267847  0.45300861    -0.80600
O44         O  0.05752178  0.54170644  0.49690356    -0.80500
O45         O  0.01776149  0.39975396  0.54307541    -0.80500
O46         O  0.05788976  0.41355674  0.50009615    -0.80600
O47         O  0.05443992  0.56190888  0.55285473    -0.80500
O48         O  0.03705139  0.45420975  0.58951080    -0.80500
O49         O  0.02710057  0.51554575  0.43460317    -0.80600
Co50       Co  0.03005618  0.51752292  0.54133244     1.51500
Co51       Co  0.02219068  0.44160842  0.47043044     1.51700
Co52       Co  0.00644251  0.52201948  0.48639777     1.51600
Co53       Co  0.99274223  0.44449427  0.55599307     1.51500
O54         O  0.01192463  0.47468768  0.51340231    -1.42400
C55         C  0.06694645  0.47138984  0.58466078     1.09100
C56         C  0.05225492  0.49329713  0.42746356     1.09200
C57         C  0.06452958  0.56667356  0.51982398     1.09100
C58         C  0.04562882  0.39222318  0.52427500     1.09100
O59         O  0.45211676  0.50093014  0.93743702    -0.80500
O60         O  0.55946436  0.50969859  0.94825589    -0.80500
O61         O  0.49895297  0.56112842  0.95559486    -0.80500
O62         O  0.52978705  0.41728695  0.98548079    -0.80500
O63         O  0.55250490  0.58188391  0.96942882    -0.80600
O64         O  0.49401861  0.43775188  0.94090293    -0.80500
O65         O  0.58017926  0.46998459  0.98781850    -0.80500
O66         O  0.43253338  0.54022444  0.97565947    -0.80600
C67         C  0.42800833  0.52320705  0.94627399     1.09200
C68         C  0.58473125  0.48935611  0.95913921     1.09100
C69         C  0.52175012  0.58683194  0.95386539     1.09200
C70         C  0.51709926  0.41525081  0.95326813     1.09100
O71         O  0.46164704  0.42183012  0.00840902    -0.80500
O72         O  0.51953005  0.56442430  0.03395397    -0.80600
O73         O  0.45509452  0.51997457  0.04674596    -0.80500
O74         O  0.54746180  0.49361883  0.05693359    -0.80500
O75         O  0.58033045  0.52749386  0.02227251    -0.80600
O76         O  0.42229932  0.48448620  0.01164243    -0.80500
O77         O  0.49834083  0.43686043  0.05340111    -0.80500
O78         O  0.46837061  0.58859063  0.01797495    -0.80600
Co79       Co  0.46019113  0.46357442  0.97508083     1.51500
Co80       Co  0.53625722  0.53547459  0.98895971     1.51700
Co81       Co  0.47920334  0.53980005  0.00347011     1.51600
Co82       Co  0.53670840  0.45690610  0.02042921     1.51500
O83         O  0.50259653  0.49191206  0.99630029    -1.42400
C84         C  0.47470328  0.41614401  0.03987501     1.09100
C85         C  0.49931637  0.59228430  0.03252714     1.09200
C86         C  0.42516389  0.50477609  0.04003599     1.09100
C87         C  0.57770986  0.50800259  0.05090621     1.09100
C88         C  0.59693671  0.93301079  0.76318809     0.02800
C89         C  0.62057071  0.90391762  0.76001132    -0.13400
C90         C  0.61849676  0.88060510  0.73040446     0.00300
C91         C  0.59409950  0.88790119  0.70190972    -0.11900
C92         C  0.57184898  0.91852921  0.70279532     0.02700
C93         C  0.57317206  0.94089129  0.73387008    -0.11300
H94         H  0.63990167  0.89839651  0.78172027     0.08300
H95         H  0.59261864  0.86988880  0.67878452     0.05900
H96         H  0.55589346  0.96413164  0.73529384     0.05700
C97         C  0.77224842  0.73462158  0.72029264     0.79800
N98         N  0.77021489  0.71039641  0.74794603    -0.78500
C99         C  0.74260338  0.71152124  0.77273720     0.82300
N100        N  0.71666693  0.73715238  0.76955921    -0.78400
C101        C  0.71826555  0.76165325  0.74201772     0.82400
N102        N  0.74625927  0.76016008  0.71772175    -0.80100
C103        C  0.94267360  0.77089951  0.59398849     0.02800
C104        C  0.95284703  0.74174293  0.57153189    -0.13400
C105        C  0.93397476  0.70895912  0.57419606     0.00300
C106        C  0.90369673  0.70681988  0.59788638    -0.11900
C107        C  0.89499245  0.73470148  0.62135680     0.02700
C108        C  0.91508561  0.76594001  0.62019255    -0.11300
H109        H  0.97500341  0.74455383  0.55222993     0.08300
H110        H  0.88708245  0.68301348  0.59875403     0.05900
H111        H  0.90793820  0.78715675  0.63900270     0.05700
C112        C  0.78400948  0.57534176  0.93199367     0.02800
C113        C  0.75567093  0.55072883  0.93856189    -0.13400
C114        C  0.72126825  0.55487855  0.92141040     0.00300
C115        C  0.71673535  0.58333928  0.89647006    -0.11900
C116        C  0.74525697  0.60674580  0.88878683     0.02700
C117        C  0.77810693  0.60349480  0.90742990    -0.11300
H118        H  0.76095247  0.52808654  0.95622041     0.08300
H119        H  0.69107753  0.58746970  0.88261407     0.05900
H120        H  0.79965102  0.62241907  0.90175423     0.05700
C121        C  0.29705516  0.25091583  0.75073657     0.79800
N122        N  0.26634433  0.24346222  0.73173401    -0.78500
C123        C  0.23454755  0.26033263  0.73913235     0.82300
N124        N  0.23402589  0.28543901  0.76596612    -0.78400
C125        C  0.26444056  0.29350550  0.78543416     0.82400
N126        N  0.29585770  0.27572491  0.77783582    -0.80100
C127        C  0.29175846  0.46602168  0.91071948     0.02800
C128        C  0.29432424  0.43301104  0.89214383    -0.13400
C129        C  0.26578177  0.40822766  0.89292182     0.00300
C130        C  0.23570423  0.41485551  0.91549454    -0.11900
C131        C  0.23255000  0.44688123  0.93492202     0.02700
C132        C  0.25980873  0.47270466  0.93137541    -0.11300
H133        H  0.31835230  0.42599958  0.87687369     0.08300
H134        H  0.21426817  0.39516250  0.91743305     0.05900
H135        H  0.25531620  0.49796854  0.94470994     0.05700
C136        C  0.42438897  0.08649444  0.76052740     0.02800
C137        C  0.40193186  0.11677496  0.75940282    -0.13400
C138        C  0.40725447  0.14392545  0.73357618     0.00300
C139        C  0.43204965  0.13845827  0.70482071    -0.11900
C140        C  0.45138837  0.10604403  0.70174294     0.02700
C141        C  0.44850657  0.08104733  0.73077901    -0.11300
H142        H  0.38029584  0.11989814  0.77929398     0.08300
H143        H  0.43552251  0.15918295  0.68436974     0.05900
H144        H  0.46471696  0.05728548  0.72988921     0.05700
C145        C  0.06651166  0.19909120  0.61404589     0.02800
C146        C  0.08817034  0.20540154  0.64510250    -0.13400
C147        C  0.10684592  0.23773403  0.64903737     0.00300
C148        C  0.10183643  0.26481803  0.62299843    -0.11900
C149        C  0.08007081  0.25966449  0.59175942     0.02700
C150        C  0.06367317  0.22598695  0.58705035    -0.11300
H151        H  0.09148670  0.18487238  0.66578513     0.08300
H152        H  0.11606515  0.28969707  0.62679473     0.05900
H153        H  0.04937640  0.21999046  0.56195718     0.05700
O154        O  0.49044624  0.03610955  0.89989609    -0.80500
O155        O  0.46075884  0.98799040  0.04498163    -0.80500
O156        O  0.45030707  0.94852515  0.97591555    -0.80500
O157        O  0.44859437  0.05150309  0.99686926    -0.80500
O158        O  0.48503219  0.92517093  0.01642763    -0.80600
O159        O  0.48449263  0.08152173  0.95965815    -0.80500
O160        O  0.47052159  0.03972855  0.06985805    -0.80500
O161        O  0.45090020  0.99454516  0.91655227    -0.80600
C162        C  0.46085083  0.01940383  0.89518519     1.09200
C163        C  0.45750184  0.00843094  0.07294384     1.09100
C164        C  0.46004296  0.92099022  0.99299840     1.09200
C165        C  0.45607082  0.08030720  0.98005786     1.09100
O166        O  0.55706794  0.05849005  0.98214434    -0.80500
O167        O  0.55479158  0.95417938  0.00171226    -0.80600
O168        O  0.52267057  0.97290787  0.90044447    -0.80500
O169        O  0.53724742  0.01444250  0.04792398    -0.80500
O170        O  0.52513322  0.96259999  0.07216002    -0.80600
O171        O  0.56083333  0.01331484  0.92202006    -0.80500
O172        O  0.51701703  0.07800197  0.02046224    -0.80500
O173        O  0.52458799  0.92572199  0.95891105    -0.80600
Co174      Co  0.52255257  0.04446082  0.94320562     1.51500
Co175      Co  0.50954211  0.97373342  0.02211788     1.51700
Co176      Co  0.48733627  0.96301982  0.94017699     1.51600
Co177      Co  0.49099201  0.03005231  0.02135603     1.51500
O178        O  0.50318187  0.00302635  0.97462723    -1.42400
C179        C  0.54602412  0.08350802  0.00240154     1.09100
C180        C  0.54972864  0.92606994  0.98325566     1.09200
C181        C  0.55292505  0.98889025  0.89951036     1.09100
C182        C  0.53799334  0.99387309  0.07604164     1.09100
C183        C  0.28897948  0.73842685  0.76434960     0.79800
N184        N  0.28607880  0.76263688  0.73648250    -0.78500
C185        C  0.25891808  0.76050205  0.71111190     0.82300
N186        N  0.23437569  0.73340553  0.71412126    -0.78400
C187        C  0.23655925  0.70881910  0.74173371     0.82400
N188        N  0.26401685  0.71175105  0.76651813    -0.80100
C189        C  0.44043193  0.78454655  0.91816302     0.02800
C190        C  0.46142057  0.75385141  0.92616375    -0.13400
C191        C  0.45546086  0.72158777  0.90719573     0.00300
C192        C  0.42936102  0.72110319  0.87885395    -0.11900
C193        C  0.40723406  0.75077119  0.87141805     0.02700
C194        C  0.41249319  0.78200491  0.89183099    -0.11300
H195        H  0.48175682  0.75489153  0.94756909     0.08300
H196        H  0.42549418  0.69704245  0.86300851     0.05900
H197        H  0.39409436  0.80419344  0.88776005     0.05700
C198        C  0.22295300  0.91851023  0.56221973     0.02800
C199        C  0.22178055  0.89211547  0.58987684    -0.13400
C200        C  0.25141156  0.86869918  0.59491084     0.00300
C201        C  0.28129501  0.87099232  0.57097592    -0.11900
C202        C  0.28322825  0.89755131  0.54368111     0.02700
C203        C  0.25419381  0.92161919  0.54022975    -0.11300
H204        H  0.19807600  0.88993302  0.60743941     0.08300
H205        H  0.30387278  0.85273174  0.57456215     0.05900
H206        H  0.25601772  0.94352164  0.52107893     0.05700
C207        C  0.08438325  0.55519963  0.77897175     0.02800
C208        C  0.08384459  0.53402552  0.74714915    -0.13400
C209        C  0.10936978  0.53954637  0.71869927     0.00300
C210        C  0.13618359  0.56577198  0.72340052    -0.11900
C211        C  0.13538200  0.58904241  0.75340723     0.02700
C212        C  0.10950116  0.58348276  0.78135032    -0.11300
H213        H  0.06375386  0.51313378  0.74478323     0.08300
H214        H  0.15764628  0.56871909  0.70331364     0.05900
H215        H  0.10918046  0.60071278  0.80514045     0.05700
C216        C  0.74262030  0.27370712  0.22695542     0.79800
N217        N  0.71513422  0.24958974  0.22577297    -0.78500
C218        C  0.71361311  0.22214271  0.25019972     0.82300
N219        N  0.74016195  0.21884477  0.27591604    -0.78400
C220        C  0.76783786  0.24273708  0.27776292     0.82400
N221        N  0.76859743  0.27018104  0.25319385    -0.80100
C222        C  0.92355762  0.21888224  0.43364159     0.02800
C223        C  0.89841562  0.21486626  0.40479014    -0.13400
C224        C  0.87573140  0.24330979  0.39430890     0.00300
C225        C  0.87729892  0.27530564  0.41384863    -0.11900
C226        C  0.90275780  0.28035577  0.44188154     0.02700
C227        C  0.92560884  0.25177832  0.45204052    -0.11300
H228        H  0.89679998  0.18975315  0.39031431     0.08300
H229        H  0.85886593  0.29675276  0.40664306     0.05900
H230        H  0.94518945  0.25516843  0.47390489     0.05700
C231        C  0.77560187  0.43301229  0.08131330     0.02800
C232        C  0.74358915  0.45317481  0.07840008    -0.13400
C233        C  0.71301465  0.44510797  0.10012786     0.00300
C234        C  0.71503165  0.41641398  0.12515419    -0.11900
C235        C  0.74664594  0.39573657  0.12808953     0.02700
C236        C  0.77693379  0.40426548  0.10630801    -0.11300
H237        H  0.74248936  0.47491883  0.05888575     0.08300
H238        H  0.69173396  0.40968384  0.14205405     0.05900
H239        H  0.80151442  0.38849690  0.10875981     0.05700
C240        C  0.56781616  0.06799620  0.21260578     0.02800
C241        C  0.59714223  0.09188101  0.21482999    -0.13400
C242        C  0.60006370  0.11534331  0.24441829     0.00300
C243        C  0.57497676  0.11328347  0.27318106    -0.11900
C244        C  0.54894341  0.08598641  0.27433392     0.02700
C245        C  0.54413424  0.06463450  0.24291779    -0.11300
H246        H  0.61723780  0.09294959  0.19307084     0.08300
H247        H  0.57678704  0.13216178  0.29549682     0.05900
H248        H  0.52218024  0.04562343  0.24190638     0.05700
O249        O  0.94999532  0.54456641  0.97448860    -0.80500
O250        O  0.06257249  0.54557028  0.04164412    -0.80500
O251        O  0.98502440  0.54310932  0.07931203    -0.80500
O252        O  0.02567663  0.53642989  0.93981902    -0.80500
O253        O  0.03292966  0.51268408  0.09688607    -0.80600
O254        O  0.97883965  0.50576798  0.92133296    -0.80500
O255        O  0.08368672  0.53719602  0.98759058    -0.80500
O256        O  0.92803500  0.53996935  0.02912087    -0.80600
C257        C  0.92547234  0.55219634  0.99692882     1.09200
C258        C  0.08658736  0.55197798  0.01828381     1.09100
C259        C  0.00768681  0.53516697  0.10407730     1.09200
C260        C  0.00621134  0.52550562  0.91378507     1.09100
O261        O  0.97991325  0.44430341  0.97088782    -0.80500
O262        O  0.02906171  0.44691991  0.05358297    -0.80600
O263        O  0.93872503  0.46465336  0.02380702    -0.80500
O264        O  0.07205376  0.46290095  0.00227790    -0.80500
O265        O  0.09669899  0.48122120  0.05286635    -0.80600
O266        O  0.91368780  0.48010954  0.97222781    -0.80500
O267        O  0.02757939  0.46023603  0.94092162    -0.80500
O268        O  0.98382543  0.46700643  0.08498753    -0.80600
Co269      Co  0.96544513  0.49490531  0.97507539     1.51500
Co270      Co  0.04571280  0.49636546  0.04482552     1.51700
Co271      Co  0.96297615  0.50418868  0.05071980     1.51600
Co272      Co  0.04790925  0.50003720  0.97143680     1.51500
O273        O  0.00510889  0.50820997  0.01060998    -1.42400
C274        C  0.00063867  0.43978504  0.94389214     1.09100
C275        C  0.00960551  0.44500097  0.08185694     1.09200
C276        C  0.90980098  0.46872873  0.00516535     1.09100
C277        C  0.10092928  0.46836241  0.02062060     1.09100
C278        C  0.20433965  0.05710869  0.41387528     0.02800
C279        C  0.21158503  0.07888686  0.38369643    -0.13400
C280        C  0.24545110  0.09469872  0.37927075     0.00300
C281        C  0.27361299  0.08690973  0.40384223    -0.11900
C282        C  0.26764936  0.06488140  0.43491547     0.02700
C283        C  0.23197153  0.05118673  0.44016426    -0.11300
H284        H  0.19027776  0.08465111  0.36402472     0.08300
H285        H  0.30001748  0.09857744  0.39864058     0.05900
H286        H  0.22476973  0.03703414  0.46485019     0.05700
C287        C  0.24125045  0.20297179  0.26734559     0.79800
N288        N  0.21844104  0.23100949  0.27236333    -0.78500
C289        C  0.21774476  0.25843314  0.24799044     0.82300
N290        N  0.24088351  0.25792859  0.21879269    -0.78400
C291        C  0.26411363  0.23014385  0.21359851     0.82400
N292        N  0.26380796  0.20272290  0.23791518    -0.80100
C293        C  0.07391119  0.40924055  0.22189136     0.02800
C294        C  0.09888027  0.38148434  0.22598223    -0.13400
C295        C  0.11748981  0.37637756  0.25881501     0.00300
C296        C  0.10947315  0.39778602  0.28926527    -0.11900
C297        C  0.08419265  0.42616986  0.28672193     0.02700
C298        C  0.06686388  0.43180129  0.25225778    -0.11300
H299        H  0.10432017  0.36374712  0.20317517     0.08300
H300        H  0.12308368  0.39199463  0.31489571     0.05900
H301        H  0.04880501  0.45414841  0.24851762     0.05700
C302        C  0.40818235  0.21295533  0.04989251     0.02800
C303        C  0.42790790  0.24549738  0.04680009    -0.13400
C304        C  0.41844348  0.27549643  0.06879138     0.00300
C305        C  0.39012859  0.27161484  0.09444243    -0.11900
C306        C  0.36923421  0.24077867  0.09590700     0.02700
C307        C  0.37751786  0.21224487  0.07300416    -0.11300
H308        H  0.45019294  0.24738536  0.02748407     0.08300
H309        H  0.38399628  0.29288240  0.11354335     0.05900
H310        H  0.36023637  0.18894760  0.07410874     0.05700
C311        C  0.79320379  0.26674678  0.75033267     0.79800
N312        N  0.79477032  0.23918919  0.72624417    -0.78500
C313        C  0.76927066  0.21296484  0.72715755     0.82300
N314        N  0.74239282  0.21462611  0.75271178    -0.78400
C315        C  0.74053079  0.24155663  0.77737878     0.82400
N316        N  0.76610903  0.26767756  0.77585734    -0.80100
C317        C  0.93806095  0.42828645  0.73657312     0.02800
C318        C  0.95242084  0.43147205  0.77253906    -0.13400
C319        C  0.94272228  0.40710562  0.80067013     0.00300
C320        C  0.91842185  0.37950876  0.79256706    -0.11900
C321        C  0.90350447  0.37609932  0.75743130     0.02700
C322        C  0.91329202  0.40038267  0.72969761    -0.11300
H323        H  0.97053256  0.45325348  0.77899310     0.08300
H324        H  0.91075486  0.36067221  0.81383693     0.05900
H325        H  0.90183958  0.39714726  0.70255686     0.05700
C326        C  0.57666484  0.27914416  0.91589139     0.02800
C327        C  0.57071537  0.25033975  0.94040259    -0.13400
C328        C  0.58841312  0.21690344  0.93539932     0.00300
C329        C  0.61194255  0.21368418  0.90463329    -0.11900
C330        C  0.62050837  0.24307757  0.88229591     0.02700
C331        C  0.60202988  0.27513314  0.88749445    -0.11300
H332        H  0.55311004  0.25479096  0.96370340     0.08300
H333        H  0.62438831  0.18854906  0.89779775     0.05900
H334        H  0.60783871  0.29735949  0.86932383     0.05700
C335        C  0.71304943  0.09096956  0.56341084     0.02800
C336        C  0.72269690  0.11499166  0.59088416    -0.13400
C337        C  0.75666970  0.11297938  0.60773211     0.00300
C338        C  0.78205873  0.08762520  0.59584983    -0.11900
C339        C  0.77322955  0.06318216  0.56795360     0.02700
C340        C  0.73827442  0.06484581  0.55211955    -0.11300
H341        H  0.70322236  0.13482089  0.60000198     0.08300
H342        H  0.80842801  0.08643798  0.60896596     0.05900
H343        H  0.72996817  0.04504106  0.53237180     0.05700
C344        C  0.74859189  0.75713528  0.27227740     0.79800
N345        N  0.72432857  0.75949594  0.24455609    -0.78500
C346        C  0.72110154  0.73323088  0.21942388     0.82300
N347        N  0.74341236  0.70418983  0.22159509    -0.78400
C348        C  0.76813261  0.70127995  0.24940607     0.82400
N349        N  0.77037241  0.72804443  0.27447667    -0.80100
C350        C  0.73088977  0.91961091  0.41179624     0.02800
C351        C  0.72872328  0.89001541  0.38848355    -0.13400
C352        C  0.75943531  0.87773288  0.36974260     0.00300
C353        C  0.79279023  0.89505883  0.37394068    -0.11900
C354        C  0.79644191  0.92379084  0.39831214     0.02700
C355        C  0.76510442  0.93605448  0.41708292    -0.11300
H356        H  0.70282330  0.87706522  0.38392474     0.08300
H357        H  0.81593848  0.88595863  0.35808818     0.05900
H358        H  0.76739314  0.95808990  0.43604089     0.05700
C359        C  0.93229293  0.56353055  0.23910063     0.02800
C360        C  0.89886198  0.58168187  0.23454713    -0.13400
C361        C  0.87457789  0.58646649  0.26394400     0.00300
C362        C  0.88092351  0.56814233  0.29696747    -0.11900
C363        C  0.91257540  0.54785434  0.30193186     0.02700
C364        C  0.93877772  0.54693281  0.27351906    -0.11300
H365        H  0.89169934  0.59319665  0.20837380     0.08300
H366        H  0.86154889  0.57039785  0.31930687     0.05900
H367        H  0.96441656  0.53389322  0.27887745     0.05700
C368        C  0.58717833  0.78985007  0.05355963     0.02800
C369        C  0.56576350  0.75934181  0.04571177    -0.13400
C370        C  0.57111091  0.72700274  0.06502753     0.00300
C371        C  0.59644240  0.72614661  0.09368222    -0.11900
C372        C  0.61915360  0.75496584  0.10055429     0.02700
C373        C  0.61504566  0.78648388  0.08011294    -0.11300
H374        H  0.54506908  0.76062532  0.02469408     0.08300
H375        H  0.59928178  0.70235757  0.11040013     0.05900
H376        H  0.63339874  0.80838480  0.08530284     0.05700
C377        C  0.23054954  0.75505138  0.29036225     0.79800
N378        N  0.23184086  0.72825799  0.26534985    -0.78500
C379        C  0.25730908  0.72781122  0.23833864     0.82300
N380        N  0.28160060  0.75485405  0.23656521    -0.78400
C381        C  0.28116937  0.78208555  0.26099537     0.82400
N382        N  0.25556292  0.78188568  0.28828228    -0.80100
C383        C  0.44965206  0.91764217  0.27074619     0.02800
C384        C  0.45430505  0.93337175  0.23562877    -0.13400
C385        C  0.42652400  0.93251359  0.20916033     0.00300
C386        C  0.39492353  0.91289386  0.21685350    -0.11900
C387        C  0.39162548  0.89313574  0.24951752     0.02700
C388        C  0.41865718  0.89615908  0.27641384    -0.11300
H389        H  0.47942264  0.94655858  0.22842027     0.08300
H390        H  0.37283427  0.91249406  0.19734119     0.05900
H391        H  0.41531434  0.88153010  0.30173849     0.05700
C392        C  0.09271766  0.70530220  0.45386538     0.02800
C393        C  0.12104781  0.71054270  0.42804748    -0.13400
C394        C  0.12362050  0.74218463  0.40762472     0.00300
C395        C  0.09839437  0.76939695  0.41371898    -0.11900
C396        C  0.07065968  0.76570592  0.44018141     0.02700
C397        C  0.06732584  0.73320781  0.45936230    -0.11300
H398        H  0.14116160  0.68992367  0.42348530     0.08300
H399        H  0.10081545  0.79397679  0.39818304     0.05900
H400        H  0.04523841  0.73002712  0.47873278     0.05700
C401        C  0.28981757  0.56995741  0.09027512     0.02800
C402        C  0.29094611  0.59451239  0.11966399    -0.13400
C403        C  0.26225165  0.61832347  0.12602176     0.00300
C404        C  0.23134006  0.61663038  0.10409598    -0.11900
C405        C  0.22712939  0.58973330  0.07804362     0.02700
C406        C  0.25730118  0.56781441  0.06955533    -0.11300
H407        H  0.31455884  0.59573008  0.13729860     0.08300
H408        H  0.21000910  0.63616918  0.10795198     0.05900
H409        H  0.25528144  0.54997802  0.04655580     0.05700
O410        O  0.96538986  0.93564732  0.55045824    -0.80500
O411        O  0.02823132  0.04773942  0.55344501    -0.80500
O412        O  0.06609316  0.97691519  0.54625598    -0.80500
O413        O  0.92542414  0.00767384  0.54561183    -0.80500
O414        O  0.08237438  0.02307283  0.51372390    -0.80600
O415        O  0.91203919  0.96188105  0.51117687    -0.80500
O416        O  0.97259187  0.06543346  0.54928066    -0.80500
O417        O  0.02086408  0.91866016  0.54646587    -0.80600
C418        C  0.98951837  0.91404251  0.55941217     1.09200
C419        C  0.00358623  0.06822928  0.56391449     1.09100
C420        C  0.09087855  0.99743162  0.53526628     1.09200
C421        C  0.90217713  0.98581985  0.53395225     1.09100
O422        O  0.96018496  0.96776658  0.44816411    -0.80500
O423        O  0.03508643  0.02140325  0.44973569    -0.80600
O424        O  0.01110832  0.92655194  0.46850400    -0.80500
O425        O  0.98191578  0.06143349  0.47050023    -0.80500
O426        O  0.03268548  0.08543765  0.48852779    -0.80600
O427        O  0.96047248  0.90126210  0.48418674    -0.80500
O428        O  0.92646799  0.01176898  0.46636219    -0.80500
O429        O  0.06628736  0.97559405  0.46702076    -0.80600
Co430      Co  0.96542059  0.95168597  0.49954341     1.51500
Co431      Co  0.02898967  0.03435689  0.50188820     1.51700
Co432      Co  0.03744296  0.95326116  0.50785074     1.51600
Co433      Co  0.95508509  0.03298701  0.50859516     1.51500
O434        O  0.99625946  0.99312589  0.51368631    -1.42400
C435        C  0.93220577  0.98657867  0.44393311     1.09100
C436        C  0.06238120  0.00171141  0.44548139     1.09200
C437        C  0.99331494  0.89781239  0.47302879     1.09100
C438        C  0.00040883  0.08959199  0.47618473     1.09100
C439        C  0.06821530  0.82900068  0.45729846    -0.26700
C440        C  0.04888016  0.79783764  0.45035177    -0.14800
C441        C  0.01045194  0.79879467  0.45228778     0.35900
C442        C  0.99246147  0.83132083  0.46064285    -0.26100
C443        C  0.01216217  0.86305348  0.46585938    -0.15400
C444        C  0.05089933  0.86113860  0.46430384     0.36900
N445        N  0.07423192  0.89114693  0.46967971    -0.89600
H446        H  0.09769286  0.82858803  0.45671064     0.18100
H447        H  0.96305971  0.83208497  0.46199047     0.18100
N448        N  0.98988516  0.76720098  0.44483964    -0.88700
H449        H  0.06904552  0.90239311  0.49532779     0.35400
H450        H  0.07029094  0.90950228  0.44846976     0.40500
H451        H  0.99462794  0.76023837  0.41748664     0.40100
H452        H  0.96204430  0.77235104  0.44725916     0.35000
C453        C  0.28795899  0.69758309  0.18523777    -0.26700
C454        C  0.25908221  0.69831414  0.21084290    -0.14800
C455        C  0.23260289  0.67106914  0.20918700     0.35900
C456        C  0.23499012  0.64479611  0.18203665    -0.26100
C457        C  0.26327899  0.64473170  0.15618155    -0.15400
C458        C  0.29024549  0.67122187  0.15792443     0.36900
N459        N  0.31933660  0.67175642  0.13148896    -0.89600
H460        H  0.30875629  0.71789256  0.18607750     0.18100
H461        H  0.21422410  0.62438743  0.18088774     0.18100
N462        N  0.20286522  0.66992885  0.23456991    -0.88700
H463        H  0.33700962  0.69292540  0.13661390     0.35400
H464        H  0.30791223  0.67650440  0.10567826     0.40500
H465        H  0.20376388  0.64552568  0.24846875     0.40100
H466        H  0.17867971  0.67095704  0.21960496     0.35000
C467        C  0.21100077  0.76579271  0.35561015    -0.26700
C468        C  0.20252883  0.75390164  0.32008660    -0.14800
C469        C  0.16775127  0.73917553  0.31384124     0.35900
C470        C  0.14290260  0.73559637  0.34292654    -0.26100
C471        C  0.15169799  0.74646184  0.37851797    -0.15400
C472        C  0.18619738  0.76204010  0.38495207     0.36900
N473        N  0.19702273  0.77431983  0.42062105    -0.89600
H474        H  0.23748807  0.77722089  0.36090819     0.18100
H475        H  0.11636142  0.72426083  0.33761234     0.18100
N476        N  0.15710114  0.72842559  0.27777332    -0.88700
H477        H  0.21924877  0.75891048  0.42891778     0.35400
H478        H  0.17664872  0.77032634  0.44017697     0.40500
H479        H  0.13408635  0.74311657  0.27035618     0.40100
H480        H  0.14968475  0.70157099  0.27899011     0.35000
C481        C  0.31072110  0.83818216  0.28455129    -0.26700
C482        C  0.30882723  0.81133387  0.25766273    -0.14800
C483        C  0.33378886  0.81289187  0.22785318     0.35900
C484        C  0.35987985  0.83996613  0.22614711    -0.26100
C485        C  0.36218054  0.86616067  0.25325626    -0.15400
C486        C  0.33692504  0.86541490  0.28267104     0.36900
N487        N  0.33621184  0.89255632  0.31021104    -0.89600
H488        H  0.29178572  0.83808433  0.30737210     0.18100
H489        H  0.37893388  0.84025171  0.20337448     0.18100
N490        N  0.33304351  0.78721260  0.19887627    -0.88700
H491        H  0.33429689  0.91735762  0.29720880     0.35400
H492        H  0.36027971  0.89162648  0.32522147     0.40500
H493        H  0.35839643  0.77462890  0.19773741     0.40100
H494        H  0.32902178  0.80072157  0.17406435     0.35000
C495        C  0.83675296  0.97762249  0.40538528    -0.26700
C496        C  0.83308043  0.94030801  0.40451250    -0.14800
C497        C  0.86449128  0.91909324  0.41014290     0.35900
C498        C  0.89797429  0.93547276  0.41793749    -0.26100
C499        C  0.90095144  0.97258370  0.42208493    -0.15400
C500        C  0.87028905  0.99393157  0.41391431     0.36900
N501        N  0.87293869  0.03207256  0.41584100    -0.89600
H502        H  0.81315405  0.99413929  0.40011507     0.18100
H503        H  0.92117016  0.91872037  0.42403314     0.18100
N504        N  0.86200810  0.88084785  0.41016921    -0.88700
H505        H  0.84798658  0.04394154  0.40955747     0.35400
H506        H  0.89133125  0.04025820  0.39558697     0.40500
H507        H  0.84552735  0.87336530  0.43229579     0.40100
H508        H  0.88746619  0.86920984  0.41463792     0.35000
C509        C  0.63552908  0.75793329  0.16637238    -0.26700
C510        C  0.64641685  0.75141715  0.13018101    -0.14800
C511        C  0.68136622  0.73717329  0.12348274     0.35900
C512        C  0.70493678  0.73039006  0.15295365    -0.26100
C513        C  0.69440698  0.73773982  0.18924788    -0.15400
C514        C  0.65899992  0.75149851  0.19582787     0.36900
N515        N  0.64549283  0.75797767  0.23214396    -0.89600
H516        H  0.60829987  0.76768590  0.17181501     0.18100
H517        H  0.73187117  0.71996571  0.14739035     0.18100
N518        N  0.69340865  0.72921436  0.08701129    -0.88700
H519        H  0.66014535  0.77876815  0.24393588     0.35400
H520        H  0.64887218  0.73486390  0.24787844     0.40500
H521        H  0.69211389  0.75262023  0.07142012     0.40100
H522        H  0.67552124  0.71071749  0.07562702     0.35000
C523        C  0.81573376  0.66758891  0.28405876    -0.26700
C524        C  0.79334524  0.66993949  0.25284210    -0.14800
C525        C  0.79678809  0.64315503  0.22574807     0.35900
C526        C  0.82233841  0.61538522  0.23029274    -0.26100
C527        C  0.84500723  0.61372358  0.26129420    -0.15400
C528        C  0.84151918  0.64038570  0.28824415     0.36900
N529        N  0.86540661  0.64106637  0.31923522    -0.89600
H530        H  0.81412053  0.68755692  0.30533624     0.18100
H531        H  0.82481767  0.59529904  0.20914379     0.18100
N532        N  0.77515648  0.64426881  0.19316799    -0.88700
H533        H  0.84955892  0.64022720  0.34309068     0.35400
H534        H  0.87949823  0.66522974  0.31885517     0.40500
H535        H  0.76042495  0.62053266  0.19166141     0.40100
H536        H  0.79267613  0.64537548  0.17054100     0.35000
C537        C  0.76247778  0.81258705  0.35882337    -0.26700
C538        C  0.75651192  0.84695736  0.34496930    -0.14800
C539        C  0.74791454  0.85161519  0.30765166     0.35900
C540        C  0.74576261  0.82194954  0.28475164    -0.26100
C541        C  0.75216674  0.78731826  0.29820151    -0.15400
C542        C  0.76049072  0.78274718  0.33592144     0.36900
N543        N  0.76599487  0.74832794  0.35205605    -0.89600
H544        H  0.76875885  0.80896014  0.38764906     0.18100
H545        H  0.73927866  0.82611926  0.25605492     0.18100
N546        N  0.74121851  0.88622849  0.29240603    -0.88700
H547        H  0.78917791  0.73686583  0.34045397     0.35400
H548        H  0.74342759  0.73241641  0.34636679     0.40500
H549        H  0.76428065  0.90192413  0.29652593     0.40100
H550        H  0.71948388  0.89774953  0.30662316     0.35000
C551        C  0.81888327  0.01663950  0.58503348    -0.26700
C552        C  0.80065912  0.03559935  0.55713336    -0.14800
C553        C  0.81276008  0.03129937  0.52040139     0.35900
C554        C  0.84345593  0.01022084  0.51302312    -0.26100
C555        C  0.86350686  0.99418846  0.54133026    -0.15400
C556        C  0.85046432  0.99674086  0.57751895     0.36900
N557        N  0.87033760  0.98064133  0.60696154    -0.89600
H558        H  0.80993025  0.01917911  0.61327289     0.18100
H559        H  0.85379480  0.00937410  0.48528530     0.18100
N560        N  0.79679925  0.05044651  0.49040038    -0.88700
H561        H  0.85298357  0.96293644  0.62059393     0.35400
H562        H  0.87755221  0.00066329  0.62542322     0.40500
H563        H  0.79657267  0.07762055  0.49657600     0.40100
H564        H  0.77020328  0.04163329  0.48664522     0.35000
C565        C  0.79283873  0.18672375  0.66846275    -0.26700
C566        C  0.76906037  0.18433384  0.69881185    -0.14800
C567        C  0.74392286  0.15577976  0.70016006     0.35900
C568        C  0.74142661  0.13224010  0.67060279    -0.26100
C569        C  0.76380563  0.13593255  0.63971788    -0.15400
C570        C  0.79034413  0.16285362  0.63883822     0.36900
N571        N  0.81377344  0.16654779  0.60741802    -0.89600
H572        H  0.81257507  0.20804997  0.66706370     0.18100
H573        H  0.72128042  0.11119357  0.67147212     0.18100
N574        N  0.72049669  0.15051731  0.73118362    -0.88700
H575        H  0.83189953  0.18762997  0.61110368     0.35400
H576        H  0.79753030  0.17329884  0.58492350     0.40500
H577        H  0.72533071  0.12503640  0.74180376     0.40100
H578        H  0.69358461  0.15152723  0.72209285     0.35000
C579        C  0.68194990  0.21691226  0.80225633    -0.26700
C580        C  0.71016577  0.24224893  0.80488210    -0.14800
C581        C  0.70845731  0.26745475  0.83362454     0.35900
C582        C  0.67906508  0.26702453  0.85832417    -0.26100
C583        C  0.65106417  0.24180456  0.85545401    -0.15400
C584        C  0.65265365  0.21652663  0.82713520     0.36900
N585        N  0.62409037  0.19101801  0.82290970    -0.89600
H586        H  0.68220165  0.19732997  0.78052124     0.18100
H587        H  0.67827549  0.28649200  0.88022153     0.18100
N588        N  0.73649466  0.29344461  0.83828669    -0.88700
H589        H  0.63557020  0.16555341  0.82432857     0.35400
H590        H  0.61296165  0.19430487  0.79674283     0.40500
H591        H  0.74752620  0.29017099  0.86450041     0.40100
H592        H  0.72460957  0.31873308  0.83692399     0.35000
C593        C  0.83903652  0.35777900  0.75093464    -0.26700
C594        C  0.87584828  0.34815748  0.75085702    -0.14800
C595        C  0.88536971  0.31181898  0.74770288     0.35900
C596        C  0.85801739  0.28583013  0.74653428    -0.26100
C597        C  0.82109971  0.29528144  0.74897799    -0.15400
C598        C  0.81166895  0.33187077  0.75005708     0.36900
N599        N  0.77461404  0.34359930  0.74942917    -0.89600
H600        H  0.83150231  0.38564327  0.75278248     0.18100
H601        H  0.86570160  0.25799670  0.74481515     0.18100
N602        N  0.92256880  0.30068521  0.74566405    -0.88700
H603        H  0.76151286  0.33465697  0.77317755     0.35400
H604        H  0.76190703  0.33249970  0.72654036     0.40500
H605        H  0.93584785  0.30887337  0.76948836     0.40100
H606        H  0.93466597  0.31348727  0.72321732     0.35000
C607        C  0.34806271  0.21421333  0.15394773    -0.26700
C608        C  0.34102024  0.23693367  0.12436494    -0.14800
C609        C  0.30825630  0.25638359  0.12334224     0.35900
C610        C  0.28334063  0.25300100  0.15223038    -0.26100
C611        C  0.29051419  0.23073039  0.18258337    -0.15400
C612        C  0.32356394  0.21097974  0.18304734     0.36900
N613        N  0.33401006  0.18840895  0.21299641    -0.89600
H614        H  0.37340136  0.19943966  0.15485858     0.18100
H615        H  0.25829692  0.26817617  0.15096821     0.18100
N616        N  0.29953262  0.27944204  0.09320097    -0.88700
H617        H  0.31573507  0.16724828  0.21500310     0.35400
H618        H  0.33391956  0.20324081  0.23722604     0.40500
H619        H  0.30033553  0.26448440  0.06905800     0.40100
H620        H  0.31929360  0.29932883  0.09140657     0.35000
C621        C  0.13653972  0.31538475  0.27672949    -0.26700
C622        C  0.14531060  0.34804097  0.26037069    -0.14800
C623        C  0.17869126  0.35169497  0.24150554     0.35900
C624        C  0.20204033  0.32243038  0.23839469    -0.26100
C625        C  0.19286842  0.28917961  0.25365900    -0.15400
C626        C  0.15988314  0.28592203  0.27347409     0.36900
N627        N  0.14911910  0.25245730  0.28902280    -0.89600
H628        H  0.11072486  0.31231901  0.29078710     0.18100
H629        H  0.22742000  0.32572578  0.22361065     0.18100
N630        N  0.18944305  0.38482426  0.22514270    -0.88700
H631        H  0.12421173  0.24524075  0.27750839     0.35400
H632        H  0.14519993  0.25601109  0.31720929     0.40500
H633        H  0.18930396  0.40436215  0.24552230     0.40100
H634        H  0.17044912  0.39190123  0.20515922     0.35000
C635        C  0.12611718  0.99156928  0.42457507    -0.26700
C636        C  0.09563259  0.01441863  0.42574588    -0.14800
C637        C  0.10101770  0.05105265  0.41825362     0.35900
C638        C  0.13665456  0.06435292  0.41464126    -0.26100
C639        C  0.16714183  0.04187130  0.41765635    -0.15400
C640        C  0.16160677  0.00500984  0.42116186     0.36900
N641        N  0.19201825  0.98115948  0.42135610    -0.89600
H642        H  0.12261107  0.96318477  0.42862021     0.18100
H643        H  0.14072796  0.09265948  0.41044190     0.18100
N644        N  0.07055642  0.07495309  0.41607278    -0.88700
H645        H  0.18859315  0.96284365  0.40010193     0.35400
H646        H  0.19175543  0.96719124  0.44619251     0.40500
H647        H  0.05510444  0.06745007  0.39334660     0.40100
H648        H  0.07922578  0.10104840  0.41114663     0.35000
C649        C  0.25454898  0.11324864  0.31443082    -0.26700
C650        C  0.24907045  0.12269690  0.35119005    -0.14800
C651        C  0.24101136  0.15835469  0.36017432     0.35900
C652        C  0.23847127  0.18387935  0.33240157    -0.26100
C653        C  0.24380470  0.17466404  0.29548768    -0.15400
C654        C  0.25210465  0.13897940  0.28646440     0.36900
N655        N  0.25657275  0.12845394  0.24897096    -0.89600
H656        H  0.25963571  0.08566016  0.30735923     0.18100
H657        H  0.23229373  0.21116589  0.33981810     0.18100
N658        N  0.23433775  0.16909795  0.39729022    -0.88700
H659        H  0.23715125  0.10898042  0.24318390     0.35400
H660        H  0.28225854  0.11680545  0.24620196     0.40500
H661        H  0.25729014  0.16289081  0.41290895     0.40100
H662        H  0.21232563  0.15453649  0.40755523     0.35000
C663        C  0.94976252  0.41775251  0.90497302    -0.26700
C664        C  0.98753701  0.42127331  0.90999535    -0.14800
C665        C  0.01050692  0.41562175  0.87904760     0.35900
C666        C  0.99534987  0.41045522  0.84410924    -0.26100
C667        C  0.95761806  0.41036695  0.83873919    -0.15400
C668        C  0.93458710  0.41277223  0.86981966     0.36900
N669        N  0.89577611  0.41182532  0.86543238    -0.89600
H670        H  0.93165790  0.42172644  0.92809388     0.18100
H671        H  0.01330269  0.40712392  0.82072881     0.18100
N672        N  0.04934029  0.41492709  0.88199372    -0.88700
H673        H  0.88270096  0.41388369  0.89086177     0.35400
H674        H  0.88822051  0.43429046  0.85020068     0.40500
H675        H  0.05655175  0.39737825  0.90310571     0.40100
H676        H  0.05899525  0.44034058  0.88798843     0.35000
C677        C  0.97936671  0.57957251  0.14620977    -0.26700
C678        C  0.99969802  0.54819072  0.14198003    -0.14800
C679        C  0.00487047  0.52640694  0.17304255     0.35900
C680        C  0.98336839  0.53193570  0.20476759    -0.26100
C681        C  0.95943756  0.56128060  0.20766890    -0.15400
C682        C  0.96104174  0.58736339  0.17925296     0.36900
N683        N  0.94426646  0.62168691  0.18377373    -0.89600
H684        H  0.97697908  0.59776501  0.12317642     0.18100
H685        H  0.98454161  0.51222612  0.22643083     0.18100
N686        N  0.03072645  0.49787570  0.17182724    -0.88700
H687        H  0.94812552  0.63755660  0.16046479     0.35400
H688        H  0.95746245  0.63447126  0.20542085     0.40500
H689        H  0.05634678  0.50914554  0.16741752     0.40100
H690        H  0.03211805  0.48564354  0.19749840     0.35000
C691        C  0.06110938  0.42132970  0.11855430    -0.26700
C692        C  0.02344003  0.42670009  0.11557389    -0.14800
C693        C  0.00195107  0.42317948  0.14772011     0.35900
C694        C  0.01855961  0.41646865  0.18195490    -0.26100
C695        C  0.05654164  0.41446144  0.18514795    -0.15400
C696        C  0.07778935  0.41633269  0.15279135     0.36900
N697        N  0.11665540  0.41527670  0.15469959    -0.89600
H698        H  0.07836470  0.42412504  0.09459044     0.18100
H699        H  0.00178003  0.41433166  0.20635486     0.18100
N700        N  0.96340738  0.42798146  0.14610286    -0.88700
H701        H  0.12578813  0.39420166  0.13838608     0.35400
H702        H  0.12675314  0.43896841  0.14347839     0.40500
H703        H  0.95644132  0.44912632  0.16338477     0.40100
H704        H  0.95108229  0.40491543  0.15635293     0.35000
C705        C  0.12510871  0.57541020  0.06799929    -0.26700
C706        C  0.12120279  0.56921305  0.03019559    -0.14800
C707        C  0.15274538  0.57184085  0.00762317     0.35900
C708        C  0.18660990  0.57995307  0.02340670    -0.26100
C709        C  0.19045719  0.58407531  0.06152952    -0.15400
C710        C  0.15892377  0.58134106  0.08393208     0.36900
N711        N  0.16043929  0.58080263  0.12328263    -0.89600
H712        H  0.10198975  0.57267542  0.08629628     0.18100
H713        H  0.21034770  0.58178253  0.00583150     0.18100
N714        N  0.15181506  0.56524827  0.96894256    -0.88700
H715        H  0.16602625  0.60618618  0.13324482     0.35400
H716        H  0.18046549  0.56281560  0.13177361     0.40500
H717        H  0.13189555  0.58150061  0.95714255     0.40100
H718        H  0.14540003  0.53851428  0.96451319     0.35000
C719        C  0.84214825  0.45647834  0.00358605    -0.26700
C720        C  0.87425780  0.46161900  0.02363839    -0.14800
C721        C  0.87248908  0.45964530  0.06255941     0.35900
C722        C  0.84021310  0.45006880  0.08012660    -0.26100
C723        C  0.80864957  0.44338204  0.06028447    -0.15400
C724        C  0.80922517  0.44741869  0.02159760     0.36900
N725        N  0.77666924  0.44171648  0.00078629    -0.89600
H726        H  0.84288339  0.45877086  0.97394829     0.18100
H727        H  0.83974575  0.44830561  0.10984865     0.18100
N728        N  0.90332227  0.46786880  0.08486119    -0.88700
H729        H  0.78155364  0.44595959  0.97282821     0.35400
H730        H  0.76944635  0.41494104  0.00382337     0.40500
H731        H  0.90902520  0.44558261  0.10112199     0.40100
H732        H  0.89637063  0.48894529  0.10222975     0.35000
C733        C  0.92671100  0.15926712  0.46212329    -0.26700
C734        C  0.94552953  0.18767259  0.44608044    -0.14800
C735        C  0.98389785  0.18486742  0.44172657     0.35900
C736        C  0.00203977  0.15348856  0.45328547    -0.26100
C737        C  0.98271202  0.12461246  0.46823927    -0.15400
C738        C  0.94464613  0.12813576  0.47316498     0.36900
N739        N  0.92379757  0.10001103  0.48959127    -0.89600
H740        H  0.89752885  0.16114676  0.46592139     0.18100
H741        H  0.03110662  0.15113534  0.44910050     0.18100
N742        N  0.00514310  0.21258821  0.42485367    -0.88700
H743        H  0.90390586  0.09210168  0.47088311     0.35400
H744        H  0.91063516  0.11012007  0.51280473     0.40500
H745        H  0.98899085  0.23402664  0.41665457     0.40100
H746        H  0.01659680  0.20213168  0.40089560     0.35000
C747        C  0.62095169  0.17774973  0.23890050    -0.26700
C748        C  0.62961172  0.14197094  0.24571733    -0.14800
C749        C  0.66579735  0.13266922  0.25481174     0.35900
C750        C  0.69242183  0.15938080  0.25595565    -0.26100
C751        C  0.68402979  0.19521871  0.24835628    -0.15400
C752        C  0.64755731  0.20435169  0.24003598     0.36900
N753        N  0.63629557  0.24043204  0.23397162    -0.89600
H754        H  0.59313437  0.18508375  0.23264172     0.18100
H755        H  0.72008557  0.15191607  0.26267460     0.18100
N756        N  0.67655582  0.09670163  0.26330957    -0.88700
H757        H  0.64890482  0.25011133  0.21025842     0.35400
H758        H  0.64424884  0.25577308  0.25644744     0.40500
H759        H  0.65475757  0.07902773  0.26205331     0.40100
H760        H  0.68552801  0.09629992  0.29051055     0.35000
C761        C  0.73508242  0.33163085  0.14051098    -0.26700
C762        C  0.74739713  0.36463328  0.15342518    -0.14800
C763        C  0.75886955  0.36743023  0.19036469     0.35900
C764        C  0.75703241  0.33737996  0.21343150    -0.26100
C765        C  0.74394438  0.30442028  0.20084069    -0.15400
C766        C  0.73326583  0.30165723  0.16357852     0.36900
N767        N  0.72158311  0.26866377  0.14792674    -0.89600
H768        H  0.72657051  0.32919269  0.11217163     0.18100
H769        H  0.76548863  0.34005348  0.24175981     0.18100
N770        N  0.77196625  0.40025619  0.20564414    -0.88700
H771        H  0.69736242  0.26080227  0.16053006     0.35400
H772        H  0.74155814  0.24936440  0.15269735     0.40500
H773        H  0.77198924  0.42086524  0.18635329     0.40100
H774        H  0.79904525  0.39623655  0.21323973     0.35000
C775        C  0.82337769  0.21429974  0.36246815    -0.26700
C776        C  0.85038739  0.24056782  0.36271088    -0.14800
C777        C  0.85143865  0.26575561  0.33399483     0.35900
C778        C  0.82494831  0.26518240  0.30646790    -0.26100
C779        C  0.79676031  0.23985587  0.30660593    -0.15400
C780        C  0.79657536  0.21350018  0.33480278     0.36900
N781        N  0.76900763  0.18643461  0.33595863    -0.89600
H782        H  0.82263441  0.19489156  0.38454703     0.18100
H783        H  0.82638242  0.28529154  0.28511841     0.18100
N784        N  0.87949122  0.29215745  0.33269342    -0.88700
H785        H  0.77162840  0.17070953  0.35955791     0.35400
H786        H  0.77360400  0.16945788  0.31373459     0.40500
H787        H  0.86712869  0.31726228  0.33276551     0.40100
H788        H  0.89352652  0.28937960  0.30787399     0.35000
C789        C  0.05874922  0.51927431  0.87267209    -0.26700
C790        C  0.02206258  0.52920359  0.87636662    -0.14800
C791        C  0.00450262  0.54580904  0.84647481     0.35900
C792        C  0.02476043  0.55355440  0.81410680    -0.26100
C793        C  0.06209401  0.54508909  0.81160670    -0.15400
C794        C  0.07865770  0.52685309  0.84100361     0.36900
N795        N  0.11594811  0.51584560  0.83950876    -0.89600
H796        H  0.07258997  0.50628588  0.89531755     0.18100
H797        H  0.01177274  0.56703873  0.79130504     0.18100
N798        N  0.96685339  0.55557036  0.84942428    -0.88700
H799        H  0.13232130  0.53836798  0.83637837     0.35400
H800        H  0.11949823  0.49947999  0.81661178     0.40500
H801        H  0.96455213  0.57473646  0.87006195     0.40100
H802        H  0.95807160  0.56765843  0.82511754     0.35000
C803        C  0.17998501  0.96841226  0.57917105    -0.26700
C804        C  0.19100926  0.94175216  0.55435893    -0.14800
C805        C  0.17097402  0.93710116  0.52176221     0.35900
C806        C  0.14041540  0.95819584  0.51501834    -0.26100
C807        C  0.12872436  0.98440506  0.53977641    -0.15400
C808        C  0.14890147  0.98952478  0.57228046     0.36900
N809        N  0.13780193  0.01519485  0.59904898    -0.89600
H810        H  0.19514206  0.97232621  0.60427874     0.18100
H811        H  0.12423285  0.95210433  0.49126790     0.18100
N812        N  0.17971580  0.90961776  0.49596189    -0.88700
H813        H  0.11157879  0.00876415  0.60794060     0.35400
H814        H  0.13676441  0.04014950  0.58623653     0.40500
H815        H  0.17974309  0.88512722  0.50971858     0.40100
H816        H  0.20568524  0.91424069  0.48540429     0.35000
C817        C  0.21358099  0.65317299  0.77348668    -0.26700
C818        C  0.20941497  0.67885766  0.74529542    -0.14800
C819        C  0.17944011  0.67501477  0.72127085     0.35900
C820        C  0.15547953  0.64610287  0.72527857    -0.26100
C821        C  0.16000525  0.62058584  0.75307214    -0.15400
C822        C  0.18936967  0.62439968  0.77757907     0.36900
N823        N  0.19592092  0.59889077  0.80613518    -0.89600
H824        H  0.23607543  0.65506613  0.79245453     0.18100
H825        H  0.13313655  0.64339825  0.70615653     0.18100
N826        N  0.17290838  0.70018041  0.69250610    -0.88700
H827        H  0.19870870  0.57374587  0.79420302     0.35400
H828        H  0.17334661  0.59843690  0.82359273     0.40500
H829        H  0.14701300  0.71107261  0.69637316     0.40100
H830        H  0.17300497  0.68652097  0.66753896     0.35000
C831        C  0.28141484  0.81629370  0.67967050    -0.26700
C832        C  0.25606322  0.78814517  0.68095463    -0.14800
C833        C  0.22863746  0.78751486  0.65358618     0.35900
C834        C  0.22686124  0.81452489  0.62665672    -0.26100
C835        C  0.25227487  0.84219840  0.62556219    -0.15400
C836        C  0.27983082  0.84310877  0.65244225     0.36900
N837        N  0.30613088  0.87140291  0.65200681    -0.89600
H838        H  0.30272121  0.81759518  0.70004934     0.18100
H839        H  0.20593101  0.81332415  0.60582757     0.18100
N840        N  0.20259384  0.75936044  0.65238671    -0.88700
H841        H  0.32473955  0.86825905  0.67340326     0.35400
H842        H  0.29224234  0.89524982  0.65691325     0.40500
H843        H  0.20479194  0.74681151  0.62689398     0.40100
H844        H  0.17664547  0.77060906  0.65430087     0.35000
C845        C  0.34428779  0.76954494  0.78979205    -0.26700
C846        C  0.31910731  0.74129564  0.79221520    -0.14800
C847        C  0.32346323  0.71637499  0.82130362     0.35900
C848        C  0.35226272  0.71997526  0.84640019    -0.26100
C849        C  0.37716549  0.74815795  0.84386520    -0.15400
C850        C  0.37297763  0.77312521  0.81514989     0.36900
N851        N  0.39839105  0.80171184  0.81101461    -0.89600
H852        H  0.34196676  0.78907077  0.76795858     0.18100
H853        H  0.35490853  0.70065559  0.86841969     0.18100
N854        N  0.29879385  0.68722283  0.82584793    -0.88700
H855        H  0.38396585  0.82570637  0.81209054     0.35400
H856        H  0.41029514  0.79972285  0.78500770     0.40500
H857        H  0.28699496  0.68909283  0.85191641     0.40100
H858        H  0.31370836  0.66351705  0.82473908     0.35000
C859        C  0.57622488  0.89031292  0.03476120    -0.26700
C860        C  0.56502627  0.89142295  0.99779894    -0.14800
C861        C  0.56198995  0.85852625  0.97914075     0.35900
C862        C  0.57061103  0.82617647  0.99715277    -0.26100
C863        C  0.58037746  0.82511358  0.03450882    -0.15400
C864        C  0.58231551  0.85793446  0.05357636     0.36900
N865        N  0.58833469  0.85840538  0.09256655    -0.89600
H866        H  0.57762114  0.91484450  0.05021185     0.18100
H867        H  0.56883555  0.80160130  0.98178268     0.18100
N868        N  0.54940811  0.85740243  0.94209869    -0.88700
H869        H  0.58867832  0.88450594  0.10250297     0.35400
H870        H  0.56620833  0.84577518  0.10508527     0.40500
H871        H  0.52620347  0.84141917  0.94140821     0.40100
H872        H  0.56941550  0.84493105  0.92622740     0.35000
C873        C  0.45330699  0.88378603  0.93720350    -0.26700
C874        C  0.45363979  0.88529338  0.97580497    -0.14800
C875        C  0.45194023  0.85290539  0.99567198     0.35900
C876        C  0.44750236  0.82030601  0.97652105    -0.26100
C877        C  0.44644390  0.81916802  0.93781138    -0.15400
C878        C  0.45100609  0.85154529  0.91824218     0.36900
N879        N  0.45625612  0.85251197  0.87922863    -0.89600
H880        H  0.45669949  0.90797796  0.92124176     0.18100
H881        H  0.44486364  0.79567253  0.99186923     0.18100
N882        N  0.45398347  0.85316849  0.03503816    -0.88700
H883        H  0.43246299  0.84496599  0.86595729     0.35400
H884        H  0.47715040  0.83484152  0.87230711     0.40500
H885        H  0.48025224  0.86110055  0.04214345     0.40100
H886        H  0.45082146  0.82738118  0.04548179     0.35000
C887        C  0.55425739  0.04709261  0.11188134    -0.26700
C888        C  0.54935332  0.00985676  0.11171307    -0.14800
C889        C  0.55052543  0.99136370  0.14559629     0.35900
C890        C  0.55733469  0.01057031  0.17833056    -0.26100
C891        C  0.56152726  0.04792632  0.17796803    -0.15400
C892        C  0.55874749  0.06617431  0.14413414     0.36900
N893        N  0.55710719  0.10430847  0.14168646    -0.89600
H894        H  0.55226563  0.06245253  0.08674809     0.18100
H895        H  0.55875275  0.99647067  0.20428576     0.18100
N896        N  0.54460969  0.95356077  0.14689753    -0.88700
H897        H  0.58210711  0.11532803  0.14868773     0.35400
H898        H  0.53702405  0.11358852  0.15963839     0.40500
H899        H  0.51735085  0.94905434  0.14041108     0.40100
H900        H  0.54811170  0.94398567  0.17363868     0.35000
C901        C  0.43297731  0.95635785  0.10724146    -0.26700
C902        C  0.44356491  0.99247638  0.10808431    -0.14800
C903        C  0.44615884  0.00918035  0.14282948     0.35900
C904        C  0.43955638  0.98936609  0.17507367    -0.26100
C905        C  0.43051067  0.95291171  0.17396212    -0.15400
C906        C  0.42709267  0.93648360  0.13926079     0.36900
N907        N  0.42043032  0.89906738  0.13537755    -0.89600
H908        H  0.43103292  0.94246372  0.08130033     0.18100
H909        H  0.44225629  0.00244984  0.20139589     0.18100
N910        N  0.45604579  0.04584565  0.14654671    -0.88700
H911        H  0.39429957  0.89310789  0.14462851     0.35400
H912        H  0.43942892  0.88496859  0.15102352     0.40500
H913        H  0.43784978  0.06130306  0.13128440     0.40100
H914        H  0.48219592  0.04939867  0.13608806     0.35000
C915        C  0.42303124  0.11399779  0.02819999    -0.26700
C916        C  0.43798306  0.11440043  0.99255681    -0.14800
C917        C  0.44268947  0.14849018  0.97548565     0.35900
C918        C  0.43205395  0.17989287  0.99395007    -0.26100
C919        C  0.41888334  0.17912950  0.03021613    -0.15400
C920        C  0.41565146  0.14543590  0.04760953     0.36900
N921        N  0.40744825  0.14282330  0.08603031    -0.89600
H922        H  0.42037873  0.08906608  0.04302079     0.18100
H923        H  0.43509340  0.20524153  0.97998984     0.18100
N924        N  0.45926126  0.15282572  0.94016929    -0.88700
H925        H  0.42916979  0.13002502  0.09904678     0.35400
H926        H  0.38439711  0.12683983  0.08920435     0.40500
H927        H  0.48579896  0.14297820  0.94072411     0.40100
H928        H  0.44397098  0.13941224  0.92064821     0.35000
C929        C  0.59547515  0.12351888  0.97916612    -0.26700
C930        C  0.56192724  0.12018489  0.99726972    -0.14800
C931        C  0.54210392  0.15202979  0.00356748     0.35900
C932        C  0.55047190  0.18301757  0.98328914    -0.26100
C933        C  0.58195872  0.18519696  0.96102056    -0.15400
C934        C  0.60691858  0.15623139  0.96379735     0.36900
N935        N  0.64405195  0.16014093  0.95215591    -0.89600
H936        H  0.61294148  0.10036781  0.97684380     0.18100
H937        H  0.53190077  0.20522032  0.98546470     0.18100
N938        N  0.51508625  0.15461181  0.03175304    -0.88700
H939        H  0.65873946  0.13670027  0.95683094     0.35400
H940        H  0.65582022  0.17977247  0.96855669     0.40500
H941        H  0.52717707  0.14761348  0.05666960     0.40100
H942        H  0.49443950  0.13659426  0.02672590     0.35000
C943        C  0.01159124  0.16368063  0.59640464    -0.26700
C944        C  0.04786633  0.16407584  0.60851395    -0.14800
C945        C  0.06631249  0.13125202  0.61280208     0.35900
C946        C  0.04887124  0.09936045  0.60290655    -0.26100
C947        C  0.01390551  0.09928627  0.58724520    -0.15400
C948        C  0.99441628  0.13180274  0.58572060     0.36900
N949        N  0.95822792  0.13286550  0.57103454    -0.89600
H950        H  0.99700843  0.18867306  0.59390042     0.18100
H951        H  0.06406937  0.07464624  0.60442257     0.18100
N952        N  0.10351171  0.13043013  0.62478094    -0.88700
H953        H  0.94828599  0.15897487  0.57045659     0.35400
H954        H  0.94146045  0.11858622  0.58900330     0.40500
H955        H  0.11921209  0.14320685  0.60472702     0.40100
H956        H  0.11306544  0.10423176  0.62648829     0.35000
C957        C  0.41615609  0.07984971  0.82867674    -0.26700
C958        C  0.42490121  0.06370011  0.79478217    -0.14800
C959        C  0.43653122  0.02753813  0.79552417     0.35900
C960        C  0.44516170  0.01137122  0.82951714    -0.26100
C961        C  0.43936160  0.02938417  0.86268526    -0.15400
C962        C  0.42182117  0.06251433  0.86198053     0.36900
N963        N  0.41111418  0.07995793  0.89508382    -0.89600
H964        H  0.40681873  0.10710190  0.83019556     0.18100
H965        H  0.45805920  0.98539724  0.83003642     0.18100
N966        N  0.43990474  0.00742542  0.76221670    -0.88700
H967        H  0.43417646  0.08280424  0.91114585     0.35400
H968        H  0.39312506  0.06320169  0.90913917     0.40500
H969        H  0.41397813  0.00540760  0.75076654     0.40100
H970        H  0.44861575  0.98143760  0.76778635     0.35000
C971        C  0.13416566  0.45381104  0.96367605    -0.26700
C972        C  0.13627841  0.46273956  0.00123887    -0.14800
C973        C  0.17109359  0.46808851  0.01671375     0.35900
C974        C  0.20235609  0.46335448  0.99474071    -0.26100
C975        C  0.19958644  0.45380104  0.95745114    -0.15400
C976        C  0.16503615  0.44995348  0.94185193     0.36900
N977        N  0.16107498  0.44302675  0.90339008    -0.89600
H978        H  0.10814052  0.45044544  0.95031510     0.18100
H979        H  0.22894526  0.46675742  0.00691301     0.18100
N980        N  0.17565640  0.47812841  0.05427321    -0.88700
H981        H  0.14576491  0.46370162  0.89187207     0.35400
H982        H  0.14640931  0.41938410  0.90040544     0.40500
H983        H  0.16319702  0.45890637  0.07086981     0.40100
H984        H  0.16270604  0.50257857  0.05839863     0.35000
C985        C  0.16624995  0.21798023  0.67286944    -0.26700
C986        C  0.13660916  0.24114889  0.67615559    -0.14800
C987        C  0.13808794  0.26885515  0.70222698     0.35900
C988        C  0.16985667  0.27395961  0.72270758    -0.26100
C989        C  0.20070255  0.25201239  0.71800003    -0.15400
C990        C  0.19800088  0.22290661  0.69316214     0.36900
N991        N  0.22674599  0.19779105  0.68736794    -0.89600
H992        H  0.16530765  0.19649505  0.65307189     0.18100
H993        H  0.17041305  0.29579101  0.74203576     0.18100
N994        N  0.10754437  0.29161838  0.70917461    -0.88700
H995        H  0.23386329  0.18624143  0.71247929     0.35400
H996        H  0.24896070  0.21091496  0.67569612     0.40500
H997        H  0.08524351  0.27564437  0.71593062     0.40100
H998        H  0.10137824  0.30603141  0.68545733     0.35000
C999        C  0.35218773  0.21988434  0.77406749    -0.26700
C1000       C  0.33037463  0.22952281  0.74414036    -0.14800
C1001       C  0.33874981  0.21569917  0.70903318     0.35900
C1002       C  0.36566161  0.18921130  0.70553192    -0.26100
C1003       C  0.38486120  0.17690327  0.73629306    -0.15400
C1004       C  0.37942924  0.19397424  0.77038574     0.36900
N1005       N  0.40105166  0.18447483  0.80158292    -0.89600
H1006       H  0.34687699  0.23105569  0.80094652     0.18100
H1007       H  0.37033582  0.17692564  0.67906913     0.18100
N1008       N  0.31952483  0.22820419  0.67721358    -0.88700
H1009       H  0.38361678  0.17572462  0.82245336     0.35400
H1010       H  0.41418184  0.20742594  0.81080547     0.40500
H1011       H  0.32891747  0.21537934  0.65356937     0.40100
H1012       H  0.32554804  0.25523722  0.67394409     0.35000
C1013       C  0.23454123  0.37160027  0.84583180    -0.26700
C1014       C  0.26544778  0.37714043  0.86753157    -0.14800
C1015       C  0.29539114  0.35402464  0.86335826     0.35900
C1016       C  0.29433396  0.32678772  0.83691902    -0.26100
C1017       C  0.26367106  0.32173573  0.81439240    -0.15400
C1018       C  0.23325465  0.34437090  0.81961175     0.36900
N1019       N  0.20104140  0.34051125  0.79803462    -0.89600
H1020       H  0.21131708  0.38921104  0.84855248     0.18100
H1021       H  0.31782348  0.30957075  0.83410183     0.18100
N1022       N  0.32668361  0.35765259  0.88631248    -0.88700
H1023       H  0.19637861  0.36447105  0.78408902     0.35400
H1024       H  0.17916738  0.33605169  0.81584528     0.40500
H1025       H  0.34932639  0.36167043  0.86939772     0.40100
H1026       H  0.33043110  0.33366484  0.90048636     0.35000
C1027       C  0.82376700  0.56902518  0.98756945    -0.26700
C1028       C  0.82054960  0.57155734  0.94925838    -0.14800
C1029       C  0.85244995  0.57234384  0.92759469     0.35900
C1030       C  0.88661943  0.57067494  0.94456003    -0.26100
C1031       C  0.89013450  0.56631757  0.98278745    -0.15400
C1032       C  0.85811831  0.56639922  0.00460403     0.36900
N1033       N  0.86039022  0.56251063  0.04379246    -0.89600
H1034       H  0.79933290  0.56895791  0.00424423     0.18100
H1035       H  0.91064566  0.57014789  0.92730647     0.18100
N1036       N  0.85002827  0.57330607  0.88819434    -0.88700
H1037       H  0.83446307  0.56221234  0.05561217     0.35400
H1038       H  0.87358991  0.58504989  0.05393429     0.40500
H1039       H  0.83756270  0.54967939  0.87980610     0.40100
H1040       H  0.87587387  0.57358520  0.87622770     0.35000
C1041       C  0.93244131  0.83629135  0.59146290    -0.26700
C1042       C  0.95717958  0.80778870  0.58883636    -0.14800
C1043       C  0.99412324  0.81549213  0.58189830     0.35900
C1044       C  0.00479827  0.85115909  0.57583325    -0.26100
C1045       C  0.97945785  0.87945782  0.57681071    -0.15400
C1046       C  0.94294311  0.87150596  0.58621730     0.36900
N1047       N  0.91518513  0.89817184  0.58943033    -0.89600
H1048       H  0.90382891  0.83124698  0.59623771     0.18100
H1049       H  0.03280988  0.85657653  0.56851733     0.18100
N1050       N  0.02057290  0.78731439  0.58062632    -0.88700
H1051       H  0.90900404  0.90840712  0.56351428     0.35400
H1052       H  0.92431148  0.91841611  0.60672742     0.40500
H1053       H  0.02188416  0.77590086  0.60680887     0.40100
H1054       H  0.04640824  0.79745852  0.57482298     0.35000
C1055       C  0.75575253  0.65067044  0.79608522    -0.26700
C1056       C  0.74104996  0.68464362  0.80256376    -0.14800
C1057       C  0.72641696  0.69240187  0.83756338     0.35900
C1058       C  0.72705680  0.66632995  0.86529735    -0.26100
C1059       C  0.74227040  0.63277316  0.85868323    -0.15400
C1060       C  0.75647656  0.62481305  0.82367886     0.36900
N1061       N  0.77192034  0.59065984  0.81555069    -0.89600
H1062       H  0.76689933  0.64411208  0.76937648     0.18100
H1063       H  0.71643474  0.67257513  0.89230338     0.18100
N1064       N  0.71221776  0.72703555  0.84558845    -0.88700
H1065       H  0.75226716  0.57117574  0.82071611     0.35400
H1066       H  0.79385883  0.58623980  0.83313004     0.40500
H1067       H  0.72705947  0.73761217  0.86740238     0.40100
H1068       H  0.68527505  0.72406685  0.85425500     0.35000
C1069       C  0.83463954  0.71430446  0.70293638    -0.26700
C1070       C  0.80302889  0.73361367  0.69382838    -0.14800
C1071       C  0.80178785  0.75199282  0.65985274     0.35900
C1072       C  0.83196168  0.75132294  0.63640636    -0.26100
C1073       C  0.86334241  0.73245744  0.64590405    -0.15400
C1074       C  0.86472037  0.71368046  0.67938727     0.36900
N1075       N  0.89664245  0.69461564  0.69045825    -0.89600
H1076       H  0.83639809  0.70015157  0.72884125     0.18100
H1077       H  0.83097781  0.76583688  0.61064012     0.18100
N1078       N  0.76997109  0.77115437  0.64869770    -0.88700
H1079       H  0.91839625  0.71248452  0.69112544     0.35400
H1080       H  0.90230706  0.67521037  0.67073842     0.40500
H1081       H  0.76107039  0.76058307  0.62378872     0.40100
H1082       H  0.77723012  0.79774102  0.64421176     0.35000
C1083       C  0.59366043  0.92886466  0.83096803    -0.26700
C1084       C  0.59396444  0.95076645  0.79958420    -0.14800
C1085       C  0.58929569  0.98784760  0.80400760     0.35900
C1086       C  0.58086542  0.00162360  0.83898828    -0.26100
C1087       C  0.57727675  0.97878360  0.86939730    -0.15400
C1088       C  0.58557721  0.94256644  0.86549387     0.36900
N1089       N  0.58203038  0.91885368  0.89608303    -0.89600
H1090       H  0.59698245  0.90027882  0.82856049     0.18100
H1091       H  0.57403195  0.02958712  0.84169059     0.18100
N1092       N  0.59223359  0.01137922  0.77314810    -0.88700
H1093       H  0.60674100  0.90548869  0.89954282     0.35400
H1094       H  0.56227567  0.90011114  0.88916113     0.40500
H1095       H  0.61256864  0.02997028  0.77880454     0.40100
H1096       H  0.56765243  0.02515824  0.77053221     0.35000
C1097       C  0.68961425  0.81106963  0.70600471    -0.26700
C1098       C  0.69033828  0.79024180  0.73831257    -0.14800
C1099       C  0.66521214  0.79807730  0.76658102     0.35900
C1100       C  0.64101311  0.82660094  0.76246256    -0.26100
C1101       C  0.64138839  0.84810821  0.73088776    -0.15400
C1102       C  0.66565371  0.84005789  0.70213387     0.36900
N1103       N  0.66672067  0.86196831  0.66969651    -0.89600
H1104       H  0.70836292  0.80532172  0.68384721     0.18100
H1105       H  0.62230418  0.83259604  0.78465682     0.18100
N1106       N  0.66464068  0.77800483  0.80005946    -0.88700
H1107       H  0.68606504  0.85237266  0.65109940     0.35400
H1108       H  0.67532287  0.88735990  0.67749650     0.40500
H1109       H  0.63865141  0.76723771  0.80341032     0.40100
H1110       H  0.66938517  0.79548042  0.82180903     0.35000
C1111       C  0.41288545  0.34207930  0.06799118    -0.26700
C1112       C  0.43560406  0.31183300  0.06509769    -0.14800
C1113       C  0.47336224  0.31744490  0.05991003     0.35900
C1114       C  0.48679377  0.35264893  0.05580931    -0.26100
C1115       C  0.46349030  0.38238502  0.05762417    -0.15400
C1116       C  0.42646227  0.37679561  0.06465094     0.36900
N1117       N  0.40213596  0.40657335  0.06665152    -0.89600
H1118       H  0.38383858  0.33893125  0.07159428     0.18100
H1119       H  0.51518956  0.35679722  0.04909030     0.18100
N1120       N  0.49785532  0.28764889  0.05834043    -0.88700
H1121       H  0.38922237  0.40589966  0.09224786     0.35400
H1122       H  0.38229859  0.40350457  0.04643051     0.40500
H1123       H  0.49738517  0.27516525  0.08403468     0.40100
H1124       H  0.52451876  0.29631591  0.05399853     0.35000
C1125       C  0.50674996  0.35355331  0.93159128    -0.26700
C1126       C  0.52927507  0.38374782  0.93244152    -0.14800
C1127       C  0.56672367  0.37945179  0.92579949     0.35900
C1128       C  0.58127410  0.34540882  0.91993823    -0.26100
C1129       C  0.55924185  0.31484234  0.92098883    -0.15400
C1130       C  0.52140890  0.31921094  0.92588027     0.36900
N1131       N  0.49786906  0.28888855  0.92551250    -0.89600
H1132       H  0.47809796  0.35628371  0.93798904     0.18100
H1133       H  0.61037733  0.34278956  0.91614346     0.18100
N1134       N  0.59047843  0.40959643  0.92718865    -0.88700
H1135       H  0.47860596  0.29278284  0.90484025     0.35400
H1136       H  0.48412845  0.28784382  0.95065859     0.40500
H1137       H  0.60430504  0.41129581  0.90213905     0.40100
H1138       H  0.60967440  0.40505036  0.94779820     0.35000
C1139       C  0.64648017  0.44255573  0.09047125    -0.26700
C1140       C  0.67766730  0.46348012  0.09337539    -0.14800
C1141       C  0.67462258  0.50059606  0.08754595     0.35900
C1142       C  0.64156259  0.51524791  0.07471269    -0.26100
C1143       C  0.61071456  0.49367011  0.06977361    -0.15400
C1144       C  0.61332305  0.45696922  0.07973702     0.36900
N1145       N  0.58356254  0.43259632  0.07759269    -0.89600
H1146       H  0.64801499  0.41404853  0.09506462     0.18100
H1147       H  0.64005700  0.54345114  0.06846324     0.18100
N1148       N  0.70459905  0.52345939  0.09585142    -0.88700
H1149       H  0.57570724  0.43000864  0.05031925     0.35400
H1150       H  0.56217787  0.44160358  0.09405678     0.40500
H1151       H  0.71154309  0.53787381  0.07232632     0.40100
H1152       H  0.69601381  0.54162574  0.11576417     0.35000
C1153       C  0.66387981  0.52325463  0.90154003    -0.26700
C1154       C  0.68953750  0.53063577  0.92933821    -0.14800
C1155       C  0.68208636  0.51798584  0.96509777     0.35900
C1156       C  0.64970937  0.49955526  0.97245572    -0.26100
C1157       C  0.62239914  0.49621494  0.94585878    -0.15400
C1158       C  0.63000073  0.50734396  0.90967607     0.36900
N1159       N  0.60284388  0.50367307  0.88169603    -0.89600
H1160       H  0.66941167  0.53148633  0.87357517     0.18100
H1161       H  0.64442148  0.49124393  0.00040184     0.18100
N1162       N  0.70538571  0.52678215  0.99502591    -0.88700
H1163       H  0.59821653  0.47645979  0.87803400     0.35400
H1164       H  0.61245132  0.51355217  0.85661300     0.40500
H1165       H  0.69030890  0.54214954  0.01345867     0.40100
H1166       H  0.71298092  0.50310624  0.00808804     0.35000
C1167       C  0.51390402  0.69250160  0.04992388    -0.26700
C1168       C  0.55175318  0.69321536  0.05548878    -0.14800
C1169       C  0.57121730  0.66083352  0.05352340     0.35900
C1170       C  0.55281050  0.62875537  0.04844150    -0.26100
C1171       C  0.51503834  0.62754963  0.04294216    -0.15400
C1172       C  0.49539126  0.66009376  0.04296070     0.36900
N1173       N  0.45696350  0.66034051  0.03611652    -0.89600
H1174       H  0.49874418  0.71723057  0.05109757     0.18100
H1175       H  0.56893101  0.60460091  0.04723713     0.18100
N1176       N  0.61013657  0.66038409  0.05546554    -0.88700
H1177       H  0.44646471  0.68606534  0.03919710     0.35400
H1178       H  0.45319013  0.65377391  0.00854585     0.40500
H1179       H  0.61774704  0.64387452  0.07732486     0.40100
H1180       H  0.62019072  0.64915681  0.03124493     0.35000
C1181       C  0.47045948  0.62392299  0.93161748    -0.26700
C1182       C  0.50810337  0.62158118  0.93845922    -0.14800
C1183       C  0.52892273  0.65296266  0.93482021     0.35900
C1184       C  0.51182078  0.68549508  0.92453054    -0.26100
C1185       C  0.47395551  0.68742323  0.91828277    -0.15400
C1186       C  0.45335305  0.65606640  0.92278166     0.36900
N1187       N  0.41447784  0.65688602  0.92018151    -0.89600
H1188       H  0.45316846  0.60081645  0.93489212     0.18100
H1189       H  0.52820011  0.70926638  0.92141488     0.18100
N1190       N  0.56719504  0.65206099  0.94151688    -0.88700
H1191       H  0.40365825  0.64817096  0.94522091     0.35400
H1192       H  0.40658519  0.63885722  0.89990356     0.40500
H1193       H  0.57286937  0.67017460  0.96245600     0.40100
H1194       H  0.58045388  0.66075395  0.91770151     0.35000
C1195       C  0.35922404  0.49819391  0.05893130    -0.26700
C1196       C  0.39183968  0.51770878  0.05989935    -0.14800
C1197       C  0.39064998  0.55277395  0.07438812     0.35900
C1198       C  0.35707429  0.56867400  0.08249229    -0.26100
C1199       C  0.32409203  0.54999710  0.08016961    -0.15400
C1200       C  0.32576183  0.51344645  0.06983563     0.36900
N1201       N  0.29463411  0.49064064  0.07121033    -0.89600
H1202       H  0.35953264  0.47110856  0.04879656     0.18100
H1203       H  0.35684987  0.59642608  0.09051265     0.18100
N1204       N  0.42336706  0.57300511  0.07963104    -0.88700
H1205       H  0.27681905  0.49731188  0.05009870     0.35400
H1206       H  0.28169648  0.49371881  0.09657739     0.40500
H1207       H  0.43795049  0.56076152  0.10079193     0.40100
H1208       H  0.41759625  0.59885656  0.08857212     0.35000
C1209       C  0.38694507  0.50348192  0.89584122    -0.26700
C1210       C  0.39163983  0.52191725  0.92886788    -0.14800
C1211       C  0.36044633  0.53182956  0.94885922     0.35900
C1212       C  0.32728773  0.51523266  0.94140594    -0.26100
C1213       C  0.32356562  0.49146154  0.91173264    -0.15400
C1214       C  0.35257848  0.49022394  0.88585767     0.36900
N1215       N  0.34731131  0.47571236  0.84982795    -0.89600
H1216       H  0.41030774  0.49822224  0.87850596     0.18100
H1217       H  0.30559349  0.51973403  0.96081486     0.18100
N1218       N  0.36254169  0.55713942  0.97809109    -0.88700
H1219       H  0.37124177  0.47733599  0.83436640     0.35400
H1220       H  0.32807415  0.49165464  0.83651470     0.40500
H1221       H  0.35222126  0.54520669  0.00178222     0.40100
H1222       H  0.34541294  0.57847171  0.97157942     0.35000
C1223       C  0.10473034  0.45515001  0.34606606    -0.26700
C1224       C  0.07679697  0.44923203  0.32021199    -0.14800
C1225       C  0.04201040  0.46346589  0.32849954     0.35900
C1226       C  0.03586822  0.48177398  0.36181338    -0.26100
C1227       C  0.06293574  0.48442495  0.38879799    -0.15400
C1228       C  0.09787793  0.47148444  0.38025697     0.36900
N1229       N  0.12648698  0.47426877  0.40663072    -0.89600
H1230       H  0.13209699  0.44604764  0.34041994     0.18100
H1231       H  0.00879275  0.49137615  0.36779200     0.18100
N1232       N  0.01198093  0.45745889  0.30453915    -0.88700
H1233       H  0.14775011  0.48867645  0.39464719     0.35400
H1234       H  0.13598772  0.44858127  0.41235521     0.40500
H1235       H  0.00158274  0.48229295  0.29684307     0.40100
H1236       H  0.99198157  0.44371193  0.31924060     0.35000
C1237       C  0.93531656  0.47949500  0.37674175    -0.26700
C1238       C  0.93869290  0.50137647  0.40786739    -0.14800
C1239       C  0.92848773  0.53779213  0.40456437     0.35900
C1240       C  0.92001446  0.55203773  0.36981774    -0.26100
C1241       C  0.91963253  0.53071208  0.33831986    -0.15400
C1242       C  0.92503430  0.49363467  0.34225698     0.36900
N1243       N  0.91856933  0.47033412  0.31173581    -0.89600
H1244       H  0.94186717  0.45142871  0.37904740     0.18100
H1245       H  0.91430772  0.58026647  0.36713751     0.18100
N1246       N  0.92825652  0.56076381  0.43603803    -0.88700
H1247       H  0.92245397  0.44375109  0.31951050     0.35400
H1248       H  0.93765730  0.47579617  0.29128604     0.40500
H1249       H  0.90749477  0.55203106  0.45351928     0.40100
H1250       H  0.92171139  0.58692348  0.42859806     0.35000
C1251       C  0.09994986  0.51889614  0.61684332    -0.26700
C1252       C  0.08857438  0.48315695  0.61722825    -0.14800
C1253       C  0.09070575  0.46430607  0.65091467     0.35900
C1254       C  0.10091244  0.48246590  0.68319013    -0.26100
C1255       C  0.10663949  0.51963792  0.68321515    -0.15400
C1256       C  0.10648631  0.53772983  0.64900506     0.36900
N1257       N  0.10877316  0.57577106  0.64584387    -0.89600
H1258       H  0.10012227  0.53389350  0.59152850     0.18100
H1259       H  0.10221824  0.46783799  0.70884065     0.18100
N1260       N  0.08197662  0.42721396  0.65343686    -0.88700
H1261       H  0.13514416  0.58427469  0.65134641     0.35400
H1262       H  0.09032438  0.58757465  0.66397726     0.40500
H1263       H  0.09788721  0.41345591  0.63433340     0.40100
H1264       H  0.05464103  0.42366333  0.64683464     0.35000
C1265       C  0.99441102  0.48242604  0.66661303    -0.26700
C1266       C  0.96815269  0.49123868  0.64003900    -0.14800
C1267       C  0.93134598  0.48403471  0.64833851     0.35900
C1268       C  0.92207844  0.46545411  0.68088967    -0.26100
C1269       C  0.94873606  0.45321678  0.70563810    -0.15400
C1270       C  0.98532801  0.46276232  0.69868015     0.36900
N1271       N  0.01344704  0.45053969  0.72292301    -0.89600
H1272       H  0.02253989  0.48838634  0.66093902     0.18100
H1273       H  0.89379178  0.45946674  0.68637519     0.18100
N1274       N  0.90347422  0.49480783  0.62307678    -0.88700
H1275       H  0.03866948  0.45998070  0.71433193     0.35400
H1276       H  0.01458587  0.42277605  0.72105626     0.40500
H1277       H  0.90355444  0.52264281  0.62206655     0.40100
H1278       H  0.87785466  0.48729764  0.63283669     0.35000
C1279       C  0.03407207  0.32841449  0.52974249    -0.26700
C1280       C  0.05988163  0.35588665  0.52965526    -0.14800
C1281       C  0.09463251  0.34913962  0.54396825     0.35900
C1282       C  0.10194559  0.31597545  0.56036898    -0.26100
C1283       C  0.07436620  0.29003227  0.56522397    -0.15400
C1284       C  0.04038677  0.29621272  0.54813430     0.36900
N1285       N  0.01096628  0.27149355  0.55171341    -0.89600
H1286       H  0.00717925  0.33340686  0.51868973     0.18100
H1287       H  0.12884807  0.31155356  0.57142365     0.18100
N1288       N  0.12197028  0.37623379  0.54465607    -0.88700
H1289       H  0.00270133  0.26415697  0.52535805     0.35400
H1290       H  0.98920179  0.28441567  0.56453219     0.40500
H1291       H  0.11191144  0.39797076  0.55943647     0.44300
H1292       H  0.12683281  0.38452778  0.51766650     0.35000
C1293       C  0.90949275  0.32032662  0.49672750    -0.26700
C1294       C  0.90702323  0.31634630  0.45841434    -0.14800
C1295       C  0.91084985  0.34682615  0.43582910     0.35900
C1296       C  0.91939190  0.37968668  0.45149279    -0.26100
C1297       C  0.92610648  0.38266757  0.48916204    -0.15400
C1298       C  0.91902282  0.35334063  0.51222829     0.36900
N1299       N  0.92436611  0.35628637  0.55100660    -0.89600
H1300       H  0.90582053  0.29740291  0.51450393     0.18100
H1301       H  0.92534156  0.40202079  0.43348038     0.18100
N1302       N  0.90944021  0.34404102  0.39665075    -0.88700
H1303       H  0.94407748  0.33770071  0.55883587     0.35400
H1304       H  0.89998093  0.34946169  0.56403393     0.40500
H1305       H  0.93440860  0.35240323  0.38591844     0.40100
H1306       H  0.88937025  0.36149604  0.38712964     0.35000
C1307       C  0.96922939  0.64083900  0.50345566    -0.26700
C1308       C  0.96575971  0.60900523  0.52367718    -0.14800
C1309       C  0.95154190  0.61067478  0.55983575     0.35900
C1310       C  0.94358669  0.64367668  0.57538727    -0.26100
C1311       C  0.94619418  0.67556339  0.55534131    -0.15400
C1312       C  0.95888021  0.67404462  0.51861911     0.36900
N1313       N  0.96103878  0.70585704  0.49675958    -0.89600
H1314       H  0.98043259  0.63990187  0.47594191     0.18100
H1315       H  0.93493943  0.64431413  0.60382196     0.18100
N1316       N  0.94543906  0.57887298  0.58115676    -0.88700
H1317       H  0.93460007  0.71544823  0.49324795     0.35400
H1318       H  0.97105999  0.70000845  0.47056360     0.40500
H1319       H  0.92480441  0.56451641  0.56826613     0.40100
H1320       H  0.93590859  0.58488683  0.60749365     0.35000
C1321       C  0.09664054  0.63859116  0.45377485    -0.26700
C1322       C  0.08913187  0.67001802  0.47332566    -0.14800
C1323       C  0.07821272  0.66675905  0.51053373     0.35900
C1324       C  0.07297350  0.63272816  0.52632113    -0.26100
C1325       C  0.07891950  0.60144542  0.50600566    -0.15400
C1326       C  0.09216810  0.60478012  0.46969064     0.36900
N1327       N  0.10036934  0.57382009  0.44828315    -0.89600
H1328       H  0.10498768  0.63998418  0.42527801     0.18100
H1329       H  0.06271076  0.63091465  0.55417268     0.18100
N1330       N  0.07251738  0.69777287  0.53259953    -0.88700
H1331       H  0.12758799  0.57526469  0.44010700     0.35400
H1332       H  0.08426250  0.57443990  0.42468706     0.40500
H1333       H  0.08982799  0.69620439  0.55524977     0.40100
H1334       H  0.04573044  0.69728807  0.54228218     0.35000
C1335       C  0.45484801  0.10812984  0.63317820    -0.26700
C1336       C  0.47053378  0.09682525  0.66640391    -0.14800
C1337       C  0.50159816  0.07452533  0.66446977     0.35900
C1338       C  0.51313712  0.06085048  0.63037307    -0.26100
C1339       C  0.49486294  0.06936358  0.59759868    -0.15400
C1340       C  0.46662520  0.09520816  0.59926581     0.36900
N1341       N  0.44791408  0.10797284  0.56740301    -0.89600
H1342       H  0.43127680  0.12542436  0.63326771     0.18100
H1343       H  0.53559237  0.04213981  0.62995445     0.18100
N1344       N  0.52167089  0.06554616  0.69682723    -0.88700
H1345       H  0.43227232  0.08738627  0.55658179     0.35400
H1346       H  0.46695192  0.11686139  0.54810138     0.40500
H1347       H  0.52207262  0.03777568  0.69937900     0.40100
H1348       H  0.54845314  0.07411902  0.69313862     0.35000
C1349       C  0.49535929  0.94302161  0.63513137    -0.26700
C1350       C  0.51475043  0.94327518  0.60175865    -0.14800
C1351       C  0.55248938  0.93568106  0.60261130     0.35900
C1352       C  0.56980116  0.92867991  0.63593099    -0.26100
C1353       C  0.55073187  0.92816064  0.66921711    -0.15400
C1354       C  0.51274663  0.93494339  0.66866731     0.36900
N1355       N  0.49087478  0.93233858  0.70114601    -0.89600
H1356       H  0.46650658  0.94883408  0.63512295     0.18100
H1357       H  0.59882811  0.92361828  0.63569437     0.18100
N1358       N  0.57401483  0.93602215  0.56977565    -0.88700
H1359       H  0.49879964  0.95196120  0.71963604     0.35400
H1360       H  0.49515496  0.90731172  0.71308409     0.40500
H1361       H  0.58635460  0.91105827  0.56703653     0.40100
H1362       H  0.59447836  0.95509065  0.57271232     0.35000
C1363       C  0.32587773  0.08386553  0.46578403    -0.26700
C1364       C  0.29909859  0.05730663  0.46078708    -0.14800
C1365       C  0.30593950  0.02332029  0.47699140     0.35900
C1366       C  0.33899454  0.01661471  0.49505902    -0.26100
C1367       C  0.36685540  0.04198140  0.49615299    -0.15400
C1368       C  0.35970510  0.07630051  0.48191566     0.36900
N1369       N  0.38642259  0.10396625  0.48300727    -0.89600
H1370       H  0.32134723  0.11058807  0.45545946     0.18100
H1371       H  0.34398485  0.99019759  0.50591131     0.18100
N1372       N  0.28148797  0.99397655  0.47357496    -0.88700
H1373       H  0.40955828  0.09562470  0.46873268     0.35400
H1374       H  0.39338461  0.10826699  0.51039261     0.40500
H1375       H  0.27434480  0.99070328  0.44605116     0.40100
H1376       H  0.25862055  0.99860799  0.48981271     0.35000
C1377       C  0.35467595  0.92267711  0.47110054    -0.26700
C1378       C  0.38518250  0.92803022  0.49366712    -0.14800
C1379       C  0.38253581  0.91727184  0.53118070     0.35900
C1380       C  0.34951604  0.90594604  0.54557502    -0.26100
C1381       C  0.31824901  0.90407686  0.52408666    -0.15400
C1382       C  0.32146451  0.91042161  0.48578209     0.36900
N1383       N  0.29213954  0.90360943  0.46102148    -0.89600
H1384       H  0.35610295  0.92941136  0.44219212     0.18100
H1385       H  0.34796840  0.90056215  0.57480442     0.18100
N1386       N  0.41198310  0.91935513  0.55659131    -0.88700
H1387       H  0.27049760  0.92061836  0.46679222     0.35400
H1388       H  0.28353932  0.87733487  0.46491478     0.40500
H1389       H  0.41748432  0.94611788  0.56168393     0.40100
H1390       H  0.43459791  0.90607498  0.54592725     0.35000
C1391       C  0.53004771  0.06794831  0.37523492    -0.26700
C1392       C  0.49242095  0.06174383  0.37592989    -0.14800
C1393       C  0.47290427  0.06422157  0.34267404     0.35900
C1394       C  0.49127935  0.07375508  0.31002091    -0.26100
C1395       C  0.52929061  0.07851141  0.30941270    -0.15400
C1396       C  0.54873742  0.07434139  0.34268127     0.36900
N1397       N  0.58769556  0.07306314  0.34414813    -0.89600
H1398       H  0.54597862  0.06517851  0.40001917     0.18100
H1399       H  0.47597522  0.07626972  0.28478453     0.18100
N1400       N  0.43474541  0.05705915  0.34122838    -0.88700
H1401       H  0.59861042  0.09824973  0.33933303     0.35400
H1402       H  0.59725608  0.05509839  0.32448380     0.40500
H1403       H  0.42159865  0.07379201  0.35992711     0.40100
H1404       H  0.43045568  0.03067055  0.34937684     0.35000
C1405       C  0.50692160  0.96929421  0.34000520    -0.26700
C1406       C  0.50548333  0.94692348  0.37090770    -0.14800
C1407       C  0.49256724  0.91186461  0.36636543     0.35900
C1408       C  0.47823263  0.90138067  0.33207228    -0.26100
C1409       C  0.47463084  0.92577375  0.30257685    -0.15400
C1410       C  0.49080263  0.95970555  0.30671537     0.36900
N1411       N  0.48890316  0.98588048  0.27825985    -0.89600
H1412       H  0.51745546  0.99607909  0.34240938     0.18100
H1413       H  0.46825273  0.87445702  0.32917803     0.18100
N1414       N  0.49273243  0.88750642  0.39687303    -0.88700
H1415       H  0.51542901  0.99384885  0.27225465     0.35400
H1416       H  0.47417640  0.00767575  0.28800828     0.40500
H1417       H  0.51984739  0.88300251  0.40405202     0.40100
H1418       H  0.48198326  0.86288087  0.38919236     0.35000
C1419       C  0.66940299  0.09467998  0.51103917    -0.26700
C1420       C  0.67544579  0.09157310  0.54894743    -0.14800
C1421       C  0.64542843  0.08782982  0.57283273     0.35900
C1422       C  0.61048078  0.08411852  0.55830563    -0.26100
C1423       C  0.60502611  0.08294214  0.52025848    -0.15400
C1424       C  0.63441109  0.09061073  0.49652740     0.36900
N1425       N  0.62984212  0.09173965  0.45750136    -0.89600
H1426       H  0.69218587  0.09862671  0.49256020     0.18100
H1427       H  0.58822670  0.07760582  0.57673412     0.18100
N1428       N  0.65064927  0.08473389  0.61168050    -0.88700
H1429       H  0.62003333  0.06716374  0.44863822     0.35400
H1430       H  0.61027181  0.11110209  0.45147800     0.40500
H1431       H  0.63533037  0.10466124  0.62444753     0.40100
H1432       H  0.64045717  0.06006597  0.62023383     0.35000
C1433       C  0.65336871  0.98189446  0.43840908    -0.26700
C1434       C  0.62756401  0.95834191  0.45376725    -0.14800
C1435       C  0.63726603  0.92197992  0.45739165     0.35900
C1436       C  0.67145185  0.91023850  0.44488212    -0.26100
C1437       C  0.69669421  0.93381917  0.42866560    -0.15400
C1438       C  0.68735630  0.97014700  0.42558030     0.36900
N1439       N  0.71179569  0.99489681  0.40817319    -0.89600
H1440       H  0.64689166  0.00989368  0.43568427     0.18100
H1441       H  0.67818014  0.88222331  0.44740566     0.18100
N1442       N  0.61289227  0.89615079  0.47266029    -0.88700
H1443       H  0.70102849  0.02069459  0.40844883     0.35400
H1444       H  0.71417543  0.98760718  0.38060074     0.40500
H1445       H  0.58875040  0.89660222  0.45760676     0.40100
H1446       H  0.60730686  0.90304167  0.49985561     0.35000
loop_ 
_geom_bond_atom_site_label_1 
_geom_bond_atom_site_label_2 
_geom_bond_distance 
_geom_bond_site_symmetry_2 
_ccdc_geom_bond_type 
O1            C9   1.273   1_545  A
O1          Co21   2.002       .  S
O2           C10   1.284       .  A
O2          Co22   2.058   1_565  S
O3           C11   1.252       .  A
O3          Co23   1.954       .  S
O4           C12   1.271       .  A
O4          Co24   1.973       .  S
O5           C11   1.267       .  A
O5          Co22   2.046   1_565  S
O6           C12   1.282       .  A
O6          Co21   2.039   1_565  S
O7           C10   1.277       .  A
O7          Co24   1.939       .  S
O8            C9   1.274       .  A
O8          Co23   1.996       .  S
C9         C1434   1.499       .  S
C10        C1378   1.497       .  S
C11        C1350   1.496       .  S
C12        C1406   1.493       .  S
O13          C26   1.256       .  A
O13         Co21   1.960       .  S
O14          C27   1.265       .  A
O14         Co22   1.951       .  S
O15          C28   1.263       .  A
O15         Co23   1.969   1_545  S
O16          C29   1.288       .  A
O16         Co24   2.082   1_545  S
O17          C29   1.271       .  A
O17         Co22   1.937       .  S
O18          C28   1.269       .  A
O18         Co21   1.993       .  S
O19          C26   1.268       .  A
O19         Co24   2.038   1_545  S
O20          C27   1.287       .  A
O20         Co23   2.064   1_545  S
Co21         O25   2.005       .  S
Co22         O25   2.019       .  S
Co23         O25   2.016   1_565  S
Co24         O25   2.050   1_565  S
C26        C1392   1.488       .  S
C27        C1339   1.497       .  S
C28        C1423   1.463       .  S
C29        C1367   1.490       .  S
O30          C38   1.286       .  A
O30         Co50   2.050   1_655  S
O31          C39   1.267       .  A
O31         Co51   1.977   1_655  S
O32          C40   1.265       .  A
O32         Co52   1.962   1_655  S
O33          C41   1.256       .  A
O33         Co53   1.970       .  S
O34          C40   1.285       .  A
O34         Co51   2.060   1_655  S
O35          C41   1.270   1_455  A
O35         Co50   2.058       .  S
O36          C39   1.271       .  A
O36         Co53   1.992       .  S
O37          C38   1.275       .  A
O37         Co52   1.935   1_655  S
C38        C1308   1.490       .  S
C39        C1297   1.468       .  S
C40        C1238   1.501       .  S
C41        C1266   1.507       .  S
O42          C55   1.267       .  A
O42         Co50   1.959       .  S
O43          C56   1.260       .  A
O43         Co51   1.975       .  S
O44          C57   1.284       .  A
O44         Co52   2.058       .  S
O45          C58   1.264       .  A
O45         Co53   1.972   1_455  S
O46          C58   1.271       .  A
O46         Co51   2.000       .  S
O47          C57   1.270       .  A
O47         Co50   1.942       .  S
O48          C55   1.287       .  A
O48         Co53   2.074   1_455  S
O49          C56   1.273       .  A
O49         Co52   2.047       .  S
Co50         O54   2.021       .  S
Co51         O54   2.036       .  S
Co52         O54   2.038       .  S
Co53         O54   2.043   1_655  S
C55        C1252   1.499       .  S
C56        C1227   1.500       .  S
C57        C1325   1.494       .  S
C58        C1280   1.473       .  S
O59          C67   1.260       .  A
O59         Co79   1.981       .  S
O60          C68   1.266       .  A
O60         Co80   1.966       .  S
O61          C69   1.281       .  A
O61         Co81   2.048   1_556  S
O62          C70   1.267       .  A
O62         Co82   1.979   1_556  S
O63          C69   1.280       .  A
O63         Co80   1.972       .  S
O64          C70   1.279       .  A
O64         Co79   2.009       .  S
O65          C68   1.282       .  A
O65         Co82   2.049   1_556  S
O66          C67   1.260       .  A
O66         Co81   1.997   1_556  S
C67        C1210   1.484       .  S
C68        C1157   1.489       .  S
C69        C1182   1.504       .  S
C70        C1126   1.476       .  S
O71          C84   1.262       .  A
O71         Co79   1.980   1_554  S
O72          C85   1.283       .  A
O72         Co80   2.062   1_554  S
O73          C86   1.266       .  A
O73         Co81   1.952       .  S
O74          C87   1.256       .  A
O74         Co82   1.960       .  S
O75          C87   1.276       .  A
O75         Co80   2.050   1_554  S
O76          C86   1.291       .  A
O76         Co79   2.080   1_554  S
O77          C84   1.270       .  A
O77         Co82   1.997       .  S
O78          C85   1.266       .  A
O78         Co81   1.948       .  S
Co79         O83   2.045       .  S
Co80         O83   2.069       .  S
Co81         O83   2.009   1_554  S
Co82         O83   2.017   1_554  S
C84        C1115   1.479       .  S
C85        C1171   1.496       .  S
C86        C1196   1.503       .  S
C87        C1143   1.496       .  S
C88        C1084   1.490       .  S
C88          C89   1.400       .  A
C88          C93   1.413       .  A
C89          C90   1.394       .  A
C89          H94   1.085       .  S
C90        C1101   1.481       .  S
C90          C91   1.401       .  A
C91          C92   1.411       .  A
C91          H95   1.084       .  S
C92        C1353   1.494       .  S
C92          C93   1.413       .  A
C93          H96   1.080       .  S
C97        C1070   1.486       .  S
C97          N98   1.357       .  A
C97         N102   1.356       .  A
N98          C99   1.358       .  A
C99        C1056   1.481       .  S
C99         N100   1.359       .  A
N100        C101   1.360       .  A
C101       C1098   1.491       .  S
C101        N102   1.357       .  A
C103       C1042   1.496       .  S
C103        C104   1.418       .  A
C103        C108   1.404       .  A
C104        C105   1.417       .  A
C104        H109   1.080       .  S
C105       C1311   1.499       .  S
C105        C106   1.410       .  A
C106        C107   1.390       .  A
C106        H110   1.084       .  S
C107       C1073   1.469       .  S
C107        C108   1.388       .  A
C108        H111   1.084       .  S
C112       C1028   1.493       .  S
C112        C113   1.414       .  A
C112        C117   1.399       .  A
C113        C114   1.422       .  A
C113        H118   1.082       .  S
C114       C1154   1.508       .  S
C114        C115   1.410       .  A
C115        C116   1.397       .  A
C115        H119   1.083       .  S
C116       C1059   1.470       .  S
C116        C117   1.393       .  A
C117        H120   1.084       .  S
C121       C1000   1.484       .  S
C121        N122   1.357       .  A
C121        N126   1.360       .  A
N122        C123   1.356       .  A
C123        C989   1.500       .  S
C123        N124   1.360       .  A
N124        C125   1.362       .  A
C125       C1017   1.498       .  S
C125        N126   1.362       .  A
C127       C1213   1.512       .  S
C127        C128   1.417       .  A
C127        C132   1.417       .  A
C128        C129   1.404       .  A
C128        H133   1.076       .  S
C129       C1014   1.492       .  S
C129        C130   1.399       .  A
C130        C131   1.402       .  A
C130        H134   1.084       .  S
C131        C975   1.486       .  S
C131        C132   1.401       .  A
C132        H135   1.079       .  S
C136        C958   1.511       .  S
C136        C137   1.405       .  A
C136        C141   1.414       .  A
C137        C138   1.398       .  A
C137        H142   1.081       .  S
C138       C1003   1.489       .  S
C138        C139   1.403       .  A
C139        C140   1.413       .  A
C139        H143   1.083       .  S
C140       C1336   1.507       .  S
C140        C141   1.415       .  A
C141        H144   1.073       .  S
C145        C944   1.498       .  S
C145        C146   1.407       .  A
C145        C150   1.411       .  A
C146        C147   1.404       .  A
C146        H151   1.083       .  S
C147        C986   1.483       .  S
C147        C148   1.400       .  A
C148        C149   1.408       .  A
C148        H152   1.081       .  S
C149       C1283   1.507       .  S
C149        C150   1.413       .  A
C150        H153   1.081       .  S
O154        C162   1.270       .  A
O154       Co174   2.000       .  S
O155        C163   1.283   1_565  A
O155       Co175   2.048       .  S
O156        C164   1.257       .  A
O156       Co176   1.958       .  S
O157        C165   1.271       .  A
O157       Co177   1.969   1_556  S
O158        C164   1.267   1_554  A
O158       Co175   2.047       .  S
O159        C165   1.282       .  A
O159       Co174   2.062       .  S
O160        C163   1.274       .  A
O160       Co177   1.954       .  S
O161        C162   1.267   1_565  A
O161       Co176   1.983       .  S
C162        C961   1.473       .  S
C163        C902   1.501   1_545  S
C164        C874   1.500       .  S
C165        C916   1.513       .  S
O166        C179   1.262   1_556  A
O166       Co174   1.980       .  S
O167        C180   1.268   1_554  A
O167       Co175   1.964       .  S
O168        C181   1.266       .  A
O168       Co176   1.977       .  S
O169        C182   1.281   1_545  A
O169       Co177   2.044       .  S
O170        C182   1.275       .  A
O170       Co175   1.956       .  S
O171        C181   1.267   1_545  A
O171       Co174   1.985       .  S
O172        C179   1.269       .  A
O172       Co177   2.040       .  S
O173        C180   1.284       .  A
O173       Co176   2.073       .  S
Co174       O178   2.055       .  S
Co175       O178   2.060   1_564  S
Co176       O178   2.047   1_565  S
Co177       O178   2.033   1_554  S
C179        C930   1.508   1_554  S
C180        C860   1.511       .  S
C181       C1087   1.465       .  S
C182        C888   1.494   1_565  S
C183        C846   1.510       .  S
C183        N184   1.364       .  A
C183        N188   1.362       .  A
N184        C185   1.366       .  A
C185        C832   1.512       .  S
C185        N186   1.365       .  A
N186        C187   1.365       .  A
C187        C818   1.510       .  S
C187        N188   1.362       .  A
C189        C877   1.503       .  S
C189        C190   1.416       .  A
C189        C194   1.412       .  A
C190        C191   1.414       .  A
C190        H195   1.083       .  S
C191       C1185   1.505       .  S
C191        C192   1.412       .  A
C192        C193   1.405       .  A
C192        H196   1.083       .  S
C193        C849   1.500       .  S
C193        C194   1.405       .  A
C194        H197   1.083       .  S
C198        C804   1.491       .  S
C198        C199   1.411       .  A
C198        C203   1.404       .  A
C199        C200   1.411       .  A
C199        H204   1.083       .  S
C200        C835   1.493       .  S
C200        C201   1.404       .  A
C201        C202   1.407       .  A
C201        H205   1.084       .  S
C202       C1381   1.491       .  S
C202        C203   1.404       .  A
C203        H206   1.078       .  S
C207        C793   1.491       .  S
C207        C208   1.408       .  A
C207        C212   1.412       .  A
C208        C209   1.412       .  A
C208        H213   1.082       .  S
C209       C1255   1.499       .  S
C209        C210   1.406       .  A
C210        C211   1.402       .  A
C210        H214   1.081       .  S
C211        C821   1.492       .  S
C211        C212   1.407       .  A
C212        H215   1.083       .  S
C216        C765   1.493       .  S
C216        N217   1.359       .  A
C216        N221   1.360       .  A
N217        C218   1.360       .  A
C218        C751   1.488       .  S
C218        N219   1.361       .  A
N219        C220   1.360       .  A
C220        C779   1.501       .  S
C220        N221   1.363       .  A
C222        C734   1.492       .  S
C222        C223   1.411       .  A
C222        C227   1.409       .  A
C223        C224   1.407       .  A
C223        H228   1.084       .  S
C224        C776   1.488       .  S
C224        C225   1.400       .  A
C225        C226   1.402       .  A
C225        H229   1.084       .  S
C226       C1294   1.490       .  S
C226        C227   1.411       .  A
C227        H230   1.084       .  S
C231        C723   1.487       .  S
C231        C232   1.403       .  A
C231        C236   1.410       .  A
C232        C233   1.406       .  A
C232        H237   1.081       .  S
C233       C1140   1.492       .  S
C233        C234   1.411       .  A
C234        C235   1.402       .  A
C234        H238   1.084       .  S
C235        C762   1.486       .  S
C235        C236   1.403       .  A
C236        H239   1.084       .  S
C240        C891   1.491       .  S
C240        C241   1.407       .  A
C240        C245   1.410       .  A
C241        C242   1.399       .  A
C241        H246   1.083       .  S
C242        C748   1.479       .  S
C242        C243   1.396       .  A
C243        C244   1.404       .  A
C243        H247   1.083       .  S
C244       C1395   1.492       .  S
C244        C245   1.411       .  A
C245        H248   1.080       .  S
O249        C257   1.249       .  A
O249       Co269   1.948       .  S
O250        C258   1.248       .  A
O250       Co270   1.952       .  S
O251        C259   1.265   1_655  A
O251       Co271   1.974       .  S
O252        C260   1.260       .  A
O252       Co272   1.963       .  S
O253        C259   1.281       .  A
O253       Co270   2.048       .  S
O254        C260   1.280   1_655  A
O254       Co269   2.057       .  S
O255        C258   1.255   1_556  A
O255       Co272   2.010       .  S
O256        C257   1.262   1_554  A
O256       Co271   2.017       .  S
C257       C1031   1.496       .  S
C258        C706   1.496       .  S
C259        C678   1.495   1_455  S
C260        C790   1.487       .  S
O261        C274   1.255   1_655  A
O261       Co269   1.978       .  S
O262        C275   1.255       .  A
O262       Co270   1.980       .  S
O263        C276   1.273       .  A
O263       Co271   1.995       .  S
O264        C277   1.274       .  A
O264       Co272   1.996   1_554  S
O265        C277   1.281       .  A
O265       Co270   1.982       .  S
O266        C276   1.280   1_556  A
O266       Co269   1.988       .  S
O267        C274   1.259       .  A
O267       Co272   2.012       .  S
O268        C275   1.262   1_655  A
O268       Co271   2.021       .  S
Co269       O273   2.018   1_656  S
Co270       O273   1.997       .  S
Co271       O273   2.132   1_655  S
Co272       O273   2.145   1_556  S
C274        C664   1.500   1_455  S
C275        C692   1.496       .  S
C276        C720   1.493       .  S
C277        C972   1.493       .  S
C278        C639   1.490       .  S
C278        C279   1.393       .  A
C278        C283   1.416       .  A
C279        C280   1.390       .  A
C279        H284   1.085       .  S
C280        C650   1.470       .  S
C280        C281   1.401       .  A
C281        C282   1.416       .  A
C281        H285   1.082       .  S
C282       C1364   1.521       .  S
C282        C283   1.423       .  A
C283        H286   1.076       .  S
C287        C653   1.477       .  S
C287        N288   1.358       .  A
C287        N292   1.354       .  A
N288        C289   1.357       .  A
C289        C625   1.487       .  S
C289        N290   1.361       .  A
N290        C291   1.361       .  A
C291        C611   1.488       .  S
C291        N292   1.356       .  A
C293        C695   1.497       .  S
C293        C294   1.396       .  A
C293        C298   1.419       .  A
C294        C295   1.393       .  A
C294        H299   1.085       .  S
C295        C622   1.476       .  S
C295        C296   1.403       .  A
C296        C297   1.416       .  A
C296        H300   1.082       .  S
C297       C1224   1.522       .  S
C297        C298   1.425       .  A
C298        H301   1.078       .  S
C302        C919   1.511       .  S
C302        C303   1.426       .  A
C302        C307   1.406       .  A
C303        C304   1.426       .  A
C303        H308   1.081       .  S
C304       C1112   1.509       .  S
C304        C305   1.405       .  A
C305        C306   1.391       .  A
C305        H309   1.084       .  S
C306        C608   1.472       .  S
C306        C307   1.393       .  A
C307        H310   1.083       .  S
C311        C597   1.485       .  S
C311        N312   1.360       .  A
C311        N316   1.362       .  A
N312        C313   1.361       .  A
C313        C566   1.493       .  S
C313        N314   1.358       .  A
N314        C315   1.357       .  A
C315        C580   1.499       .  S
C315        N316   1.361       .  A
C317       C1269   1.514       .  S
C317        C318   1.420       .  A
C317        C322   1.413       .  A
C318        C319   1.416       .  A
C318        H323   1.083       .  S
C319        C667   1.498       .  S
C319        C320   1.402       .  A
C320        C321   1.401       .  A
C320        H324   1.084       .  S
C321        C594   1.483       .  S
C321        C322   1.405       .  A
C322        H325   1.083       .  S
C326       C1129   1.496       .  S
C326        C327   1.417       .  A
C326        C331   1.400       .  A
C327        C328   1.425       .  A
C327        H332   1.080       .  S
C328        C933   1.528       .  S
C328        C329   1.420       .  A
C329        C330   1.404       .  A
C329        H333   1.078       .  S
C330        C583   1.489       .  S
C330        C331   1.394       .  A
C331        H334   1.084       .  S
C335       C1420   1.482       .  S
C335        C336   1.397       .  A
C335        C340   1.411       .  A
C336        C337   1.396       .  A
C336        H341   1.085       .  S
C337        C569   1.476       .  S
C337        C338   1.401       .  A
C338        C339   1.411       .  A
C338        H342   1.084       .  S
C339        C552   1.498       .  S
C339        C340   1.412       .  A
C340        H343   1.082       .  S
C344        C541   1.484       .  S
C344        N345   1.353       .  A
C344        N349   1.356       .  A
N345        C346   1.354       .  A
C346        C513   1.486       .  S
C346        N347   1.366       .  A
N347        C348   1.368       .  A
C348        C524   1.502       .  S
C348        N349   1.363       .  A
C350       C1437   1.497       .  S
C350        C351   1.403       .  A
C350        C355   1.417       .  A
C351        C352   1.397       .  A
C351        H356   1.084       .  S
C352        C538   1.473       .  S
C352        C353   1.399       .  A
C353        C354   1.406       .  A
C353        H357   1.083       .  S
C354        C496   1.503       .  S
C354        C355   1.416       .  A
C355        H358   1.083       .  S
C359        C681   1.520       .  S
C359        C360   1.415       .  A
C359        C364   1.419       .  A
C360        C361   1.405       .  A
C360        H365   1.079       .  S
C361        C527   1.495       .  S
C361        C362   1.404       .  A
C362        C363   1.402       .  A
C362        H366   1.084       .  S
C363       C1241   1.495       .  S
C363        C364   1.413       .  A
C364        H367   1.080       .  S
C368        C863   1.513       .  S
C368        C369   1.422       .  A
C368        C373   1.417       .  A
C369        C370   1.415       .  A
C369        H374   1.082       .  S
C370       C1168   1.498       .  S
C370        C371   1.402       .  A
C371        C372   1.392       .  A
C371        H375   1.084       .  S
C372        C510   1.481       .  S
C372        C373   1.404       .  A
C373        H376   1.082       .  S
C377        C468   1.494       .  S
C377        N378   1.360       .  A
C377        N382   1.367       .  A
N378        C379   1.357       .  A
C379        C454   1.497       .  S
C379        N380   1.355       .  A
N380        C381   1.358       .  A
C381        C482   1.503       .  S
C381        N382   1.368       .  A
C383       C1409   1.514       .  S
C383        C384   1.417       .  A
C383        C388   1.412       .  A
C384        C385   1.408       .  A
C384        H389   1.080       .  S
C385        C905   1.498       .  S
C385        C386   1.404       .  A
C386        C387   1.405       .  A
C386        H390   1.082       .  S
C387        C485   1.490       .  S
C387        C388   1.403       .  A
C388        H391   1.079       .  S
C392       C1322   1.506       .  S
C392        C393   1.415       .  A
C392        C397   1.417       .  A
C393        C394   1.402       .  A
C393        H398   1.083       .  S
C394        C471   1.487       .  S
C394        C395   1.397       .  A
C395        C396   1.408       .  A
C395        H399   1.084       .  S
C396        C440   1.494       .  S
C396        C397   1.409       .  A
C397        H400   1.081       .  S
C401       C1199   1.511       .  S
C401        C402   1.416       .  A
C401        C406   1.419       .  A
C402        C403   1.402       .  A
C402        H407   1.083       .  S
C403        C457   1.483       .  S
C403        C404   1.394       .  A
C404        C405   1.397       .  A
C404        H408   1.083       .  S
C405        C709   1.495       .  S
C405        C406   1.415       .  A
C406        H409   1.077       .  S
O410        C418   1.245       .  A
O410       Co430   1.948       .  S
O411        C419   1.248       .  A
O411       Co431   1.946       .  S
O412        C420   1.258       .  A
O412       Co432   1.969       .  S
O413        C421   1.262   1_545  A
O413       Co433   1.974       .  S
O414        C420   1.279   1_545  A
O414       Co431   2.056       .  S
O415        C421   1.277       .  A
O415       Co430   2.044       .  S
O416        C419   1.265   1_655  A
O416       Co433   2.029       .  S
O417        C418   1.257   1_455  A
O417       Co432   2.006       .  S
C418       C1045   1.489       .  S
C419        C947   1.495       .  S
C420        C807   1.485       .  S
C421        C555   1.481       .  S
O422        C435   1.257       .  A
O422       Co430   1.975       .  S
O423        C436   1.256       .  A
O423       Co431   1.975       .  S
O424        C437   1.273   1_455  A
O424       Co432   2.005       .  S
O425        C438   1.276   1_655  A
O425       Co433   2.006       .  S
O426        C438   1.280       .  A
O426       Co431   1.981       .  S
O427        C437   1.280       .  A
O427       Co430   1.985       .  S
O428        C435   1.269   1_545  A
O428       Co433   2.033       .  S
O429        C436   1.262   1_565  A
O429       Co432   2.007       .  S
Co430       O434   1.997       .  S
Co431       O434   2.007   1_445  S
Co432       O434   2.139   1_455  S
Co433       O434   2.136   1_545  S
C435        C499   1.498       .  S
C436        C636   1.495       .  S
C437        C443   1.500   1_655  S
C438        C737   1.494   1_455  S
C439        C440   1.395       .  A
C439        C444   1.388       .  A
C439        H446   1.085       .  S
C440        C441   1.416       .  A
C441        C442   1.421   1_455  A
C441        N448   1.435   1_455  S
C442        C443   1.409   1_655  A
C442        H447   1.083       .  S
C443        C444   1.428       .  A
C444        N445   1.432       .  S
N445        H449   1.044       .  S
N445        H450   1.044       .  S
N448        H451   1.045       .  S
N448        H452   1.046       .  S
C453        C454   1.412       .  A
C453        C458   1.408       .  A
C453        H460   1.082       .  S
C454        C455   1.415       .  A
C455        C456   1.402       .  A
C455        N462   1.431       .  S
C456        C457   1.402       .  A
C456        H461   1.084       .  S
C457        C458   1.408       .  A
C458        N459   1.438       .  S
N459        H463   1.045       .  S
N459        H464   1.046       .  S
N462        H465   1.046       .  S
N462        H466   1.046       .  S
C467        C468   1.407       .  A
C467        C472   1.410       .  A
C467        H474   1.084       .  S
C468        C469   1.414       .  A
C469        C470   1.404       .  A
C469        N476   1.432       .  S
C470        C471   1.400       .  A
C470        H475   1.084       .  S
C471        C472   1.419       .  A
C472        N473   1.438       .  S
N473        H477   1.046       .  S
N473        H478   1.043       .  S
N476        H479   1.046       .  S
N476        H480   1.046       .  S
C481        C482   1.410       .  A
C481        C486   1.408       .  A
C481        H488   1.083       .  S
C482        C483   1.421       .  A
C483        C484   1.400       .  A
C483        N490   1.432       .  S
C484        C485   1.399       .  A
C484        H489   1.085       .  S
C485        C486   1.417       .  A
C486        N487   1.433       .  S
N487        H491   1.045       .  S
N487        H492   1.043       .  S
N490        H493   1.046       .  S
N490        H494   1.046       .  S
C495        C496   1.408       .  A
C495        C500   1.414       .  A
C495        H502   1.083       .  S
C496        C497   1.418       .  A
C497        C498   1.408       .  A
C497        N504   1.439       .  S
C498        C499   1.406       .  A
C498        H503   1.082       .  S
C499        C500   1.415       .  A
C500        N501   1.437   1_565  S
N501        H505   1.046       .  S
N501        H506   1.045       .  S
N504        H507   1.045       .  S
N504        H508   1.046       .  S
C509        C510   1.399       .  A
C509        C514   1.400       .  A
C509        H516   1.084       .  S
C510        C511   1.413       .  A
C511        C512   1.405       .  A
C511        N518   1.432       .  S
C512        C513   1.405       .  A
C512        H517   1.084       .  S
C513        C514   1.421       .  A
C514        N515   1.433       .  S
N515        H519   1.044       .  S
N515        H520   1.046       .  S
N518        H521   1.046       .  S
N518        H522   1.045       .  S
C523        C524   1.409       .  A
C523        C528   1.401       .  A
C523        H530   1.082       .  S
C524        C525   1.417       .  A
C525        C526   1.412       .  A
C525        N532   1.432       .  S
C526        C527   1.407       .  A
C526        H531   1.084       .  S
C527        C528   1.410       .  A
C528        N529   1.433       .  S
N529        H533   1.046       .  S
N529        H534   1.046       .  S
N532        H535   1.045       .  S
N532        H536   1.046       .  S
C537        C538   1.401       .  A
C537        C542   1.401       .  A
C537        H544   1.084       .  S
C538        C539   1.407       .  A
C539        C540   1.396       .  A
C539        N546   1.432       .  S
C540        C541   1.407       .  A
C540        H545   1.084       .  S
C541        C542   1.419       .  A
C542        N543   1.432       .  S
N543        H547   1.044       .  S
N543        H548   1.045       .  S
N546        H549   1.045       .  S
N546        H550   1.045       .  S
C551        C552   1.410       .  A
C551        C556   1.407   1_545  A
C551        H558   1.084       .  S
C552        C553   1.419       .  A
C553        C554   1.404       .  A
C553        N560   1.433       .  S
C554        C555   1.403   1_545  A
C554        H559   1.079       .  S
C555        C556   1.405       .  A
C556        N557   1.432       .  S
N557        H561   1.046       .  S
N557        H562   1.046   1_565  S
N560        H563   1.045       .  S
N560        H564   1.043       .  S
C565        C566   1.411       .  A
C565        C570   1.409       .  A
C565        H572   1.083       .  S
C566        C567   1.418       .  A
C567        C568   1.399       .  A
C567        N574   1.433       .  S
C568        C569   1.399       .  A
C568        H573   1.085       .  S
C569        C570   1.407       .  A
C570        N571   1.437       .  S
N571        H575   1.045       .  S
N571        H576   1.046       .  S
N574        H577   1.046       .  S
N574        H578   1.046       .  S
C579        C580   1.413       .  A
C579        C584   1.406       .  A
C579        H586   1.082       .  S
C580        C581   1.415       .  A
C581        C582   1.405       .  A
C581        N588   1.432       .  S
C582        C583   1.405       .  A
C582        H587   1.084       .  S
C583        C584   1.405       .  A
C584        N585   1.432       .  S
N585        H589   1.046       .  S
N585        H590   1.046       .  S
N588        H591   1.046       .  S
N588        H592   1.046       .  S
C593        C594   1.401       .  A
C593        C598   1.402       .  A
C593        H600   1.084       .  S
C594        C595   1.413       .  A
C595        C596   1.404       .  A
C595        N602   1.432       .  S
C596        C597   1.406       .  A
C596        H601   1.084       .  S
C597        C598   1.417       .  A
C598        N599   1.432       .  S
N599        H603   1.044       .  S
N599        H604   1.046       .  S
N602        H605   1.045       .  S
N602        H606   1.046       .  S
C607        C608   1.397       .  A
C607        C612   1.395       .  A
C607        H614   1.085       .  S
C608        C609   1.409       .  A
C609        C610   1.399       .  A
C609        N616   1.433       .  S
C610        C611   1.409       .  A
C610        H615   1.084       .  S
C611        C612   1.423       .  A
C612        N613   1.432       .  S
N613        H617   1.044       .  S
N613        H618   1.045       .  S
N616        H619   1.046       .  S
N616        H620   1.045       .  S
C621        C622   1.399       .  A
C621        C626   1.404       .  A
C621        H628   1.084       .  S
C622        C623   1.412       .  A
C623        C624   1.398       .  A
C623        N630   1.433       .  S
C624        C625   1.406       .  A
C624        H629   1.084       .  S
C625        C626   1.416       .  A
C626        N627   1.432       .  S
N627        H631   1.046       .  S
N627        H632   1.046       .  S
N630        H633   1.046       .  S
N630        H634   1.044       .  S
C635        C636   1.412   1_565  A
C635        C640   1.406   1_565  A
C635        H642   1.083       .  S
C636        C637   1.415       .  A
C637        C638   1.410       .  A
C637        N644   1.437       .  S
C638        C639   1.407       .  A
C638        H643   1.084       .  S
C639        C640   1.404       .  A
C640        N641   1.432   1_545  S
N641        H645   1.045       .  S
N641        H646   1.044       .  S
N644        H647   1.046       .  S
N644        H648   1.045       .  S
C649        C650   1.401       .  A
C649        C654   1.404       .  A
C649        H656   1.084       .  S
C650        C651   1.410       .  A
C651        C652   1.394       .  A
C651        N658   1.433       .  S
C652        C653   1.403       .  A
C652        H657   1.084       .  S
C653        C654   1.413       .  A
C654        N655   1.432       .  S
N655        H659   1.046       .  S
N655        H660   1.046       .  S
N658        H661   1.045       .  S
N658        H662   1.045       .  S
C663        C664   1.409       .  A
C663        C668   1.412       .  A
C663        H670   1.083       .  S
C664        C665   1.423   1_655  A
C665        C666   1.405   1_455  A
C665        N672   1.434       .  S
C666        C667   1.403       .  A
C666        H671   1.084   1_655  S
C667        C668   1.415       .  A
C668        N669   1.438       .  S
N669        H673   1.046       .  S
N669        H674   1.046       .  S
N672        H675   1.045       .  S
N672        H676   1.043       .  S
C677        C678   1.403       .  A
C677        C682   1.409       .  A
C677        H684   1.084       .  S
C678        C679   1.407   1_655  A
C679        C680   1.414   1_455  A
C679        N686   1.432       .  S
C680        C681   1.413       .  A
C680        H685   1.081       .  S
C681        C682   1.424       .  A
C682        N683   1.438       .  S
N683        H687   1.045       .  S
N683        H688   1.046       .  S
N686        H689   1.046       .  S
N686        H690   1.042       .  S
C691        C692   1.405       .  A
C691        C696   1.404       .  A
C691        H698   1.083       .  S
C692        C693   1.417       .  A
C693        C694   1.412       .  A
C693        N700   1.431   1_455  S
C694        C695   1.405       .  A
C694        H699   1.084       .  S
C695        C696   1.414       .  A
C696        N697   1.433       .  S
N697        H701   1.046       .  S
N697        H702   1.046       .  S
N700        H703   1.046       .  S
N700        H704   1.045       .  S
C705        C706   1.405       .  A
C705        C710   1.393       .  A
C705        H712   1.084       .  S
C706        C707   1.424       .  A
C707        C708   1.408       .  A
C707        N714   1.432   1_554  S
C708        C709   1.406       .  A
C708        H713   1.084       .  S
C709        C710   1.420       .  A
C710        N711   1.435       .  S
N711        H715   1.042       .  S
N711        H716   1.045       .  S
N714        H717   1.045       .  S
N714        H718   1.045       .  S
C719        C720   1.405       .  A
C719        C724   1.417       .  A
C719        H726   1.083   1_554  S
C720        C721   1.421       .  A
C721        C722   1.394       .  A
C721        N728   1.432       .  S
C722        C723   1.394       .  A
C722        H727   1.085       .  S
C723        C724   1.417       .  A
C724        N725   1.436       .  S
N725        H729   1.045   1_554  S
N725        H730   1.045       .  S
N728        H731   1.045       .  S
N728        H732   1.046       .  S
C733        C734   1.398       .  A
C733        C738   1.400       .  A
C733        H740   1.085       .  S
C734        C735   1.424       .  A
C735        C736   1.416   1_655  A
C735        N742   1.438   1_655  S
C736        C737   1.405   1_455  A
C736        H741   1.083       .  S
C737        C738   1.418       .  A
C738        N739   1.434       .  S
N739        H743   1.046       .  S
N739        H744   1.045       .  S
N742        H745   1.043   1_455  S
N742        H746   1.046       .  S
C747        C748   1.401       .  A
C747        C752   1.400       .  A
C747        H754   1.084       .  S
C748        C749   1.416       .  A
C749        C750   1.404       .  A
C749        N756   1.439       .  S
C750        C751   1.406       .  A
C750        H755   1.084       .  S
C751        C752   1.418       .  A
C752        N753   1.432       .  S
N753        H757   1.044       .  S
N753        H758   1.046       .  S
N756        H759   1.043       .  S
N756        H760   1.046       .  S
C761        C762   1.403       .  A
C761        C766   1.403       .  A
C761        H768   1.084       .  S
C762        C763   1.416       .  A
C763        C764   1.406       .  A
C763        N770   1.438       .  S
C764        C765   1.407       .  A
C764        H769   1.084       .  S
C765        C766   1.419       .  A
C766        N767   1.433       .  S
N767        H771   1.044       .  S
N767        H772   1.046       .  S
N770        H773   1.043       .  S
N770        H774   1.046       .  S
C775        C776   1.401       .  A
C775        C780   1.413       .  A
C775        H782   1.084       .  S
C776        C777   1.408       .  A
C777        C778   1.401       .  A
C777        N784   1.433       .  S
C778        C779   1.408       .  A
C778        H783   1.083       .  S
C779        C780   1.424       .  A
C780        N781   1.437       .  S
N781        H785   1.046       .  S
N781        H786   1.045       .  S
N784        H787   1.046       .  S
N784        H788   1.045       .  S
C789        C790   1.406       .  A
C789        C794   1.394       .  A
C789        H796   1.085       .  S
C790        C791   1.411       .  A
C791        C792   1.423       .  A
C791        N798   1.436   1_455  S
C792        C793   1.412       .  A
C792        H797   1.083       .  S
C793        C794   1.409       .  A
C794        N795   1.433       .  S
N795        H799   1.045       .  S
N795        H800   1.046       .  S
N798        H801   1.046       .  S
N798        H802   1.045       .  S
C803        C804   1.409       .  A
C803        C808   1.413       .  A
C803        H810   1.083       .  S
C804        C805   1.411       .  A
C805        C806   1.396       .  A
C805        N812   1.434       .  S
C806        C807   1.403       .  A
C806        H811   1.077       .  S
C807        C808   1.413       .  A
C808        N809   1.432   1_565  S
N809        H813   1.045       .  S
N809        H814   1.046       .  S
N812        H815   1.045       .  S
N812        H816   1.044       .  S
C817        C818   1.415       .  A
C817        C822   1.408       .  A
C817        H824   1.082       .  S
C818        C819   1.418       .  A
C819        C820   1.406       .  A
C819        N826   1.429       .  S
C820        C821   1.401       .  A
C820        H825   1.084       .  S
C821        C822   1.412       .  A
C822        N823   1.432       .  S
N823        H827   1.045       .  S
N823        H828   1.045       .  S
N826        H829   1.046       .  S
N826        H830   1.046       .  S
C831        C832   1.411       .  A
C831        C836   1.412       .  A
C831        H838   1.083       .  S
C832        C833   1.421       .  A
C833        C834   1.410       .  A
C833        N840   1.429       .  S
C834        C835   1.399       .  A
C834        H839   1.084       .  S
C835        C836   1.412       .  A
C836        N837   1.438       .  S
N837        H841   1.045       .  S
N837        H842   1.046       .  S
N840        H843   1.046       .  S
N840        H844   1.046       .  S
C845        C846   1.412       .  A
C845        C850   1.412       .  A
C845        H852   1.083       .  S
C846        C847   1.420       .  A
C847        C848   1.409       .  A
C847        N854   1.432       .  S
C848        C849   1.403       .  A
C848        H853   1.084       .  S
C849        C850   1.411       .  A
C850        N851   1.432       .  S
N851        H855   1.046       .  S
N851        H856   1.046       .  S
N854        H857   1.046       .  S
N854        H858   1.046       .  S
C859        C860   1.410   1_554  A
C859        C864   1.411       .  A
C859        H866   1.082       .  S
C860        C861   1.416       .  A
C861        C862   1.414       .  A
C861        N868   1.429       .  S
C862        C863   1.409   1_556  A
C862        H867   1.083       .  S
C863        C864   1.419       .  A
C864        N865   1.439       .  S
N865        H869   1.046       .  S
N865        H870   1.046       .  S
N868        H871   1.045       .  S
N868        H872   1.046       .  S
C873        C874   1.408       .  A
C873        C878   1.399       .  A
C873        H880   1.084       .  S
C874        C875   1.414       .  A
C875        C876   1.421       .  A
C875        N882   1.436   1_556  S
C876        C877   1.412       .  A
C876        H881   1.083       .  S
C877        C878   1.417       .  A
C878        N879   1.434       .  S
N879        H883   1.042       .  S
N879        H884   1.045       .  S
N882        H885   1.045       .  S
N882        H886   1.045       .  S
C887        C888   1.410       .  A
C887        C892   1.389       .  A
C887        H894   1.083       .  S
C888        C889   1.415   1_545  A
C889        C890   1.419   1_565  A
C889        N896   1.437       .  S
C890        C891   1.411       .  A
C890        H895   1.083   1_545  S
C891        C892   1.412       .  A
C892        N893   1.435       .  S
N893        H897   1.042       .  S
N893        H898   1.046       .  S
N896        H899   1.045       .  S
N896        H900   1.045       .  S
C901        C902   1.412       .  A
C901        C906   1.399       .  A
C901        H908   1.084       .  S
C902        C903   1.418   1_565  A
C903        C904   1.409   1_545  A
C903        N910   1.431       .  S
C904        C905   1.410       .  A
C904        H909   1.084   1_565  S
C905        C906   1.415       .  A
C906        N907   1.434       .  S
N907        H911   1.042       .  S
N907        H912   1.045       .  S
N910        H913   1.045       .  S
N910        H914   1.042       .  S
C915        C916   1.409   1_554  A
C915        C920   1.404       .  A
C915        H922   1.083       .  S
C916        C917   1.431       .  A
C917        C918   1.413       .  A
C917        N924   1.431       .  S
C918        C919   1.406   1_556  A
C918        H923   1.083       .  S
C919        C920   1.418       .  A
C920        N921   1.434       .  S
N921        H925   1.046       .  S
N921        H926   1.046       .  S
N924        H927   1.044       .  S
N924        H928   1.040       .  S
C929        C930   1.403       .  A
C929        C934   1.412       .  A
C929        H936   1.083       .  S
C930        C931   1.418   1_556  A
C931        C932   1.410   1_554  A
C931        N938   1.431       .  S
C932        C933   1.415       .  A
C932        H937   1.080       .  S
C933        C934   1.426       .  A
C934        N935   1.437       .  S
N935        H939   1.046       .  S
N935        H940   1.046       .  S
N938        H941   1.045       .  S
N938        H942   1.035       .  S
C943        C944   1.407       .  A
C943        C948   1.411   1_455  A
C943        H950   1.084   1_455  S
C944        C945   1.414       .  A
C945        C946   1.408       .  A
C945        N952   1.438       .  S
C946        C947   1.409       .  A
C946        H951   1.084       .  S
C947        C948   1.416   1_455  A
C948        N949   1.437       .  S
N949        H953   1.046       .  S
N949        H954   1.045       .  S
N952        H955   1.046       .  S
N952        H956   1.046       .  S
C957        C958   1.414       .  A
C957        C962   1.391       .  A
C957        H964   1.080       .  S
C958        C959   1.423       .  A
C959        C960   1.414       .  A
C959        N966   1.436       .  S
C960        C961   1.402       .  A
C960        H965   1.084   1_545  S
C961        C962   1.400       .  A
C962        N963   1.428       .  S
N963        H967   1.038       .  S
N963        H968   1.045       .  S
N966        H969   1.045       .  S
N966        H970   1.046   1_545  S
C971        C972   1.413   1_556  A
C971        C976   1.392       .  A
C971        H978   1.083       .  S
C972        C973   1.416       .  A
C973        C974   1.411   1_554  A
C973        N980   1.431       .  S
C974        C975   1.410       .  A
C974        H979   1.083   1_556  S
C975        C976   1.402       .  A
C976        N977   1.434       .  S
N977        H981   1.046       .  S
N977        H982   1.046       .  S
N980        H983   1.045       .  S
N980        H984   1.045       .  S
C985        C986   1.399       .  A
C985        C990   1.397       .  A
C985        H992   1.085       .  S
C986        C987   1.412       .  A
C987        C988   1.403       .  A
C987        N994   1.433       .  S
C988        C989   1.412       .  A
C988        H993   1.083       .  S
C989        C990   1.425       .  A
C990        N991   1.431       .  S
N991        H995   1.045       .  S
N991        H996   1.044       .  S
N994        H997   1.045       .  S
N994        H998   1.043       .  S
C999       C1000   1.402       .  A
C999       C1004   1.402       .  A
C999       H1006   1.084       .  S
C1000      C1001   1.415       .  A
C1001      C1002   1.408       .  A
C1001      N1008   1.437       .  S
C1002      C1003   1.403       .  A
C1002      H1007   1.083       .  S
C1003      C1004   1.413       .  A
C1004      N1005   1.433       .  S
N1005      H1009   1.046       .  S
N1005      H1010   1.045       .  S
N1008      H1011   1.046       .  S
N1008      H1012   1.045       .  S
C1013      C1014   1.403       .  A
C1013      C1018   1.402       .  A
C1013      H1020   1.084       .  S
C1014      C1015   1.410       .  A
C1015      C1016   1.408       .  A
C1015      N1022   1.432       .  S
C1016      C1017   1.411       .  A
C1016      H1021   1.083       .  S
C1017      C1018   1.417       .  A
C1018      N1019   1.432       .  S
N1019      H1023   1.046       .  S
N1019      H1024   1.046       .  S
N1022      H1025   1.046       .  S
N1022      H1026   1.046       .  S
C1027      C1028   1.404       .  A
C1027      C1032   1.413   1_556  A
C1027      H1034   1.084   1_556  S
C1028      C1029   1.413       .  A
C1029      C1030   1.404       .  A
C1029      N1036   1.439       .  S
C1030      C1031   1.408       .  A
C1030      H1035   1.083       .  S
C1031      C1032   1.419   1_556  A
C1032      N1033   1.437       .  S
N1033      H1037   1.046       .  S
N1033      H1038   1.045       .  S
N1036      H1039   1.046       .  S
N1036      H1040   1.045       .  S
C1041      C1042   1.407       .  A
C1041      C1046   1.390       .  A
C1041      H1048   1.084       .  S
C1042      C1043   1.412       .  A
C1043      C1044   1.412   1_655  A
C1043      N1050   1.437   1_655  S
C1044      C1045   1.413   1_455  A
C1044      H1049   1.083       .  S
C1045      C1046   1.418       .  A
C1046      N1047   1.434       .  S
N1047      H1051   1.044       .  S
N1047      H1052   1.045       .  S
N1050      H1053   1.045       .  S
N1050      H1054   1.045       .  S
C1055      C1056   1.405       .  A
C1055      C1060   1.395       .  A
C1055      H1062   1.084       .  S
C1056      C1057   1.414       .  A
C1057      C1058   1.404       .  A
C1057      N1064   1.431       .  S
C1058      C1059   1.399       .  A
C1058      H1063   1.084       .  S
C1059      C1060   1.410       .  A
C1060      N1061   1.433       .  S
N1061      H1065   1.046       .  S
N1061      H1066   1.045       .  S
N1064      H1067   1.046       .  S
N1064      H1068   1.046       .  S
C1069      C1070   1.409       .  A
C1069      C1074   1.399       .  A
C1069      H1076   1.083       .  S
C1070      C1071   1.416       .  A
C1071      C1072   1.399       .  A
C1071      N1078   1.432       .  S
C1072      C1073   1.397       .  A
C1072      H1077   1.084       .  S
C1073      C1074   1.408       .  A
C1074      N1075   1.433       .  S
N1075      H1079   1.046       .  S
N1075      H1080   1.045       .  S
N1078      H1081   1.046       .  S
N1078      H1082   1.046       .  S
C1083      C1084   1.406       .  A
C1083      C1088   1.392       .  A
C1083      H1090   1.084       .  S
C1084      C1085   1.412       .  A
C1085      C1086   1.411   1_565  A
C1085      N1092   1.431   1_565  S
C1086      C1087   1.404   1_545  A
C1086      H1091   1.084       .  S
C1087      C1088   1.401       .  A
C1088      N1089   1.430       .  S
N1089      H1093   1.046       .  S
N1089      H1094   1.045       .  S
N1092      H1095   1.046       .  S
N1092      H1096   1.046       .  S
C1097      C1098   1.411       .  A
C1097      C1102   1.406       .  A
C1097      H1104   1.082       .  S
C1098      C1099   1.413       .  A
C1099      C1100   1.399       .  A
C1099      N1106   1.431       .  S
C1100      C1101   1.403       .  A
C1100      H1105   1.084       .  S
C1101      C1102   1.408       .  A
C1102      N1103   1.438       .  S
N1103      H1107   1.046       .  S
N1103      H1108   1.045       .  S
N1106      H1109   1.046       .  S
N1106      H1110   1.046       .  S
C1111      C1112   1.413       .  A
C1111      C1116   1.401       .  A
C1111      H1118   1.083       .  S
C1112      C1113   1.418       .  A
C1113      C1114   1.419       .  A
C1113      N1120   1.436       .  S
C1114      C1115   1.408       .  A
C1114      H1119   1.084       .  S
C1115      C1116   1.402       .  A
C1116      N1117   1.433       .  S
N1117      H1121   1.046       .  S
N1117      H1122   1.045       .  S
N1120      H1123   1.045       .  S
N1120      H1124   1.046       .  S
C1125      C1126   1.406       .  A
C1125      C1130   1.412       .  A
C1125      H1132   1.084       .  S
C1126      C1127   1.407       .  A
C1127      C1128   1.402       .  A
C1127      N1134   1.432       .  S
C1128      C1129   1.406       .  A
C1128      H1133   1.084       .  S
C1129      C1130   1.412       .  A
C1130      N1131   1.432       .  S
N1131      H1135   1.046       .  S
N1131      H1136   1.046       .  S
N1134      H1137   1.045       .  S
N1134      H1138   1.046       .  S
C1139      C1140   1.396       .  A
C1139      C1144   1.391       .  A
C1139      H1146   1.084       .  S
C1140      C1141   1.413       .  A
C1141      C1142   1.414       .  A
C1141      N1148   1.432       .  S
C1142      C1143   1.408       .  A
C1142      H1147   1.083       .  S
C1143      C1144   1.427       .  A
C1144      N1145   1.431       .  S
N1145      H1149   1.041       .  S
N1145      H1150   1.045       .  S
N1148      H1151   1.043       .  S
N1148      H1152   1.045       .  S
C1153      C1154   1.415       .  A
C1153      C1158   1.413       .  A
C1153      H1160   1.082       .  S
C1154      C1155   1.411       .  A
C1155      C1156   1.403       .  A
C1155      N1162   1.429       .  S
C1156      C1157   1.404       .  A
C1156      H1161   1.081   1_556  S
C1157      C1158   1.409       .  A
C1158      N1159   1.437       .  S
N1159      H1163   1.045       .  S
N1159      H1164   1.046       .  S
N1162      H1165   1.045   1_556  S
N1162      H1166   1.045   1_556  S
C1167      C1168   1.408       .  A
C1167      C1172   1.419       .  A
C1167      H1174   1.083       .  S
C1168      C1169   1.412       .  A
C1169      C1170   1.396       .  A
C1169      N1176   1.434       .  S
C1170      C1171   1.406       .  A
C1170      H1175   1.084       .  S
C1171      C1172   1.419       .  A
C1172      N1173   1.437       .  S
N1173      H1177   1.046       .  S
N1173      H1178   1.045       .  S
N1176      H1179   1.046       .  S
N1176      H1180   1.046       .  S
C1181      C1182   1.411       .  A
C1181      C1186   1.397       .  A
C1181      H1188   1.083       .  S
C1182      C1183   1.412       .  A
C1183      C1184   1.422       .  A
C1183      N1190   1.430       .  S
C1184      C1185   1.414       .  A
C1184      H1189   1.083       .  S
C1185      C1186   1.410       .  A
C1186      N1187   1.434       .  S
N1187      H1191   1.046       .  S
N1187      H1192   1.046       .  S
N1190      H1193   1.045       .  S
N1190      H1194   1.046       .  S
C1195      C1196   1.408       .  A
C1195      C1200   1.414       .  A
C1195      H1202   1.083       .  S
C1196      C1197   1.420       .  A
C1197      C1198   1.402       .  A
C1197      N1204   1.438       .  S
C1198      C1199   1.406       .  A
C1198      H1203   1.083       .  S
C1199      C1200   1.425       .  A
C1200      N1201   1.432       .  S
N1201      H1205   1.042       .  S
N1201      H1206   1.045       .  S
N1204      H1207   1.045       .  S
N1204      H1208   1.046       .  S
C1209      C1210   1.401       .  A
C1209      C1214   1.409       .  A
C1209      H1216   1.084       .  S
C1210      C1211   1.408       .  A
C1211      C1212   1.399       .  A
C1211      N1218   1.432       .  S
C1212      C1213   1.411       .  A
C1212      H1217   1.078       .  S
C1213      C1214   1.423       .  A
C1214      N1215   1.437       .  S
N1215      H1219   1.046       .  S
N1215      H1220   1.045       .  S
N1218      H1221   1.042   1_556  S
N1218      H1222   1.045       .  S
C1223      C1224   1.415       .  A
C1223      C1228   1.412       .  A
C1223      H1230   1.082       .  S
C1224      C1225   1.418       .  A
C1225      C1226   1.414       .  A
C1225      N1232   1.429       .  S
C1226      C1227   1.406       .  A
C1226      H1231   1.081       .  S
C1227      C1228   1.408       .  A
C1228      N1229   1.432       .  S
N1229      H1233   1.045       .  S
N1229      H1234   1.046       .  S
N1232      H1235   1.045       .  S
N1232      H1236   1.045   1_455  S
C1237      C1238   1.409       .  A
C1237      C1242   1.414       .  A
C1237      H1244   1.083       .  S
C1238      C1239   1.422       .  A
C1239      C1240   1.408       .  A
C1239      N1246   1.437       .  S
C1240      C1241   1.402       .  A
C1240      H1245   1.084       .  S
C1241      C1242   1.412       .  A
C1242      N1243   1.438       .  S
N1243      H1247   1.046       .  S
N1243      H1248   1.042       .  S
N1246      H1249   1.046       .  S
N1246      H1250   1.046       .  S
C1251      C1252   1.406       .  A
C1251      C1256   1.392       .  A
C1251      H1258   1.079       .  S
C1252      C1253   1.417       .  A
C1253      C1254   1.413       .  A
C1253      N1260   1.432       .  S
C1254      C1255   1.412       .  A
C1254      H1259   1.083       .  S
C1255      C1256   1.417       .  A
C1256      N1257   1.435       .  S
N1257      H1261   1.042       .  S
N1257      H1262   1.045       .  S
N1260      H1263   1.045       .  S
N1260      H1264   1.044       .  S
C1265      C1266   1.408       .  A
C1265      C1270   1.419       .  A
C1265      H1272   1.079   1_655  S
C1266      C1267   1.413       .  A
C1267      C1268   1.415       .  A
C1267      N1274   1.437       .  S
C1268      C1269   1.410       .  A
C1268      H1273   1.083       .  S
C1269      C1270   1.416       .  A
C1270      N1271   1.436   1_655  S
N1271      H1275   1.041       .  S
N1271      H1276   1.045       .  S
N1274      H1277   1.045       .  S
N1274      H1278   1.045       .  S
C1279      C1280   1.403       .  A
C1279      C1284   1.399       .  A
C1279      H1286   1.085       .  S
C1280      C1281   1.405       .  A
C1281      C1282   1.405       .  A
C1281      N1288   1.432       .  S
C1282      C1283   1.418       .  A
C1282      H1287   1.082       .  S
C1283      C1284   1.417       .  A
C1284      N1285   1.432       .  S
N1285      H1289   1.046       .  S
N1285      H1290   1.045   1_455  S
N1288      H1291   1.046       .  S
N1288      H1292   1.045       .  S
C1293      C1294   1.408       .  A
C1293      C1298   1.409       .  A
C1293      H1300   1.084       .  S
C1294      C1295   1.414       .  A
C1295      C1296   1.398       .  A
C1295      N1302   1.433       .  S
C1296      C1297   1.400       .  A
C1296      H1301   1.085       .  S
C1297      C1298   1.407       .  A
C1298      N1299   1.432       .  S
N1299      H1303   1.045       .  S
N1299      H1304   1.046       .  S
N1302      H1305   1.046       .  S
N1302      H1306   1.046       .  S
C1307      C1308   1.407       .  A
C1307      C1312   1.416       .  A
C1307      H1314   1.083       .  S
C1308      C1309   1.418       .  A
C1309      C1310   1.394       .  A
C1309      N1316   1.439       .  S
C1310      C1311   1.403       .  A
C1310      H1315   1.083       .  S
C1311      C1312   1.417       .  A
C1312      N1313   1.435       .  S
N1313      H1317   1.045       .  S
N1313      H1318   1.046       .  S
N1316      H1319   1.045       .  S
N1316      H1320   1.046       .  S
C1321      C1322   1.407       .  A
C1321      C1326   1.403       .  A
C1321      H1328   1.083       .  S
C1322      C1323   1.418       .  A
C1323      C1324   1.412       .  A
C1323      N1330   1.432       .  S
C1324      C1325   1.407       .  A
C1324      H1329   1.084       .  S
C1325      C1326   1.414       .  A
C1326      N1327   1.433       .  S
N1327      H1331   1.046       .  S
N1327      H1332   1.046       .  S
N1330      H1333   1.045       .  S
N1330      H1334   1.046       .  S
C1335      C1336   1.406       .  A
C1335      C1340   1.396       .  A
C1335      H1342   1.083       .  S
C1336      C1337   1.417       .  A
C1337      C1338   1.410       .  A
C1337      N1344   1.432       .  S
C1338      C1339   1.408       .  A
C1338      H1343   1.084       .  S
C1339      C1340   1.422       .  A
C1340      N1341   1.432       .  S
N1341      H1345   1.044       .  S
N1341      H1346   1.045       .  S
N1344      H1347   1.046       .  S
N1344      H1348   1.045       .  S
C1349      C1350   1.408       .  A
C1349      C1354   1.413       .  A
C1349      H1356   1.084       .  S
C1350      C1351   1.418       .  A
C1351      C1352   1.397       .  A
C1351      N1358   1.433       .  S
C1352      C1353   1.399       .  A
C1352      H1357   1.085       .  S
C1353      C1354   1.421       .  A
C1354      N1355   1.432       .  S
N1355      H1359   1.043       .  S
N1355      H1360   1.046       .  S
N1358      H1361   1.046       .  S
N1358      H1362   1.046       .  S
C1363      C1364   1.416       .  A
C1363      C1368   1.406       .  A
C1363      H1370   1.083       .  S
C1364      C1365   1.426       .  A
C1365      C1366   1.407       .  A
C1365      N1372   1.429   1_545  S
C1366      C1367   1.401       .  A
C1366      H1371   1.082   1_545  S
C1367      C1368   1.412       .  A
C1368      N1369   1.432       .  S
N1369      H1373   1.044       .  S
N1369      H1374   1.044       .  S
N1372      H1375   1.045       .  S
N1372      H1376   1.042       .  S
C1377      C1378   1.409       .  A
C1377      C1382   1.410       .  A
C1377      H1384   1.083       .  S
C1378      C1379   1.427       .  A
C1379      C1380   1.389       .  A
C1379      N1386   1.430       .  S
C1380      C1381   1.396       .  A
C1380      H1385   1.085       .  S
C1381      C1382   1.419       .  A
C1382      N1383   1.433       .  S
N1383      H1387   1.041       .  S
N1383      H1388   1.045       .  S
N1386      H1389   1.043       .  S
N1386      H1390   1.044       .  S
C1391      C1392   1.405       .  A
C1391      C1396   1.390       .  A
C1391      H1398   1.083       .  S
C1392      C1393   1.413       .  A
C1393      C1394   1.412       .  A
C1393      N1400   1.431       .  S
C1394      C1395   1.410       .  A
C1394      H1399   1.083       .  S
C1395      C1396   1.417       .  A
C1396      N1397   1.435       .  S
N1397      H1401   1.042       .  S
N1397      H1402   1.045       .  S
N1400      H1403   1.045       .  S
N1400      H1404   1.045       .  S
C1405      C1406   1.403       .  A
C1405      C1410   1.400       .  A
C1405      H1412   1.082       .  S
C1406      C1407   1.410       .  A
C1407      C1408   1.415       .  A
C1407      N1414   1.437       .  S
C1408      C1409   1.416       .  A
C1408      H1413   1.081       .  S
C1409      C1410   1.416       .  A
C1410      N1411   1.428       .  S
N1411      H1415   1.044       .  S
N1411      H1416   1.043   1_565  S
N1414      H1417   1.046       .  S
N1414      H1418   1.045       .  S
C1419      C1420   1.404       .  A
C1419      C1424   1.402       .  A
C1419      H1426   1.084       .  S
C1420      C1421   1.411       .  A
C1421      C1422   1.399       .  A
C1421      N1428   1.433       .  S
C1422      C1423   1.402       .  A
C1422      H1427   1.085       .  S
C1423      C1424   1.412       .  A
C1424      N1425   1.433       .  S
N1425      H1429   1.044       .  S
N1425      H1430   1.046       .  S
N1428      H1431   1.046       .  S
N1428      H1432   1.046       .  S
C1433      C1434   1.412       .  A
C1433      C1438   1.405       .  A
C1433      H1440   1.082   1_565  S
C1434      C1435   1.416       .  A
C1435      C1436   1.407       .  A
C1435      N1442   1.432       .  S
C1436      C1437   1.411       .  A
C1436      H1441   1.084       .  S
C1437      C1438   1.410       .  A
C1438      N1439   1.438       .  S
N1439      H1443   1.046   1_565  S
N1439      H1444   1.045       .  S
N1442      H1445   1.046       .  S
N1442      H1446   1.045       .  S
