geometry optimzed in LAMMPS
_audit_creation_date              2020-11-30 
_audit_creation_method            'lammps2cif' 
_symmetry_space_group_name_H-M    'P1' 
_symmetry_Int_Tables_number       1 
_symmetry_cell_setting            triclinic 
loop_ 
_symmetry_equiv_pos_as_xyz 
  x,y,z 
_cell_length_a                    70.23581417 
_cell_length_b                    70.2230606556292 
_cell_length_c                    40.78856092511709 
_cell_angle_alpha                 89.99561939604949 
_cell_angle_beta                  90.43036566678597 
_cell_angle_gamma                 120.01492498337643 
loop_ 
_atom_site_label 
_atom_site_type_symbol 
_atom_site_fract_x 
_atom_site_fract_y 
_atom_site_fract_z 
_atom_site_charge 
O1          O  0.76860886  0.26551307  0.21217943    -0.72700
O2          O  0.72818902  0.22796727  0.28287994    -0.73700
O3          O  0.77012281  0.26738397  0.28112455    -0.62300
O4          O  0.72697126  0.22586715  0.21356226    -0.70700
O5          O  0.74392925  0.20648205  0.21451628    -0.70300
O6          O  0.78645488  0.24739618  0.28213781    -0.61500
O7          O  0.74457603  0.20799175  0.28366820    -0.74100
O8          O  0.78559608  0.24612630  0.21315069    -0.72800
Cu9        Cu  0.74787023  0.24734440  0.24739664     1.04600
Cu10       Cu  0.76569617  0.22630050  0.24840361     1.04300
C11         C  0.78389542  0.26222781  0.20207919     0.93500
C12         C  0.72979672  0.21192170  0.29431422     0.92600
C13         C  0.78544436  0.26417581  0.29180724     0.84800
C14         C  0.72858408  0.20950526  0.20342918     0.91000
N15         N  0.52414939  0.87233557  0.42533387    -0.27100
N16         N  0.52671764  0.85791262  0.44271115    -0.34900
C17         C  0.52877704  0.84401012  0.42258574     0.01300
C18         C  0.52734780  0.84963931  0.39062251     0.07300
C19         C  0.52459137  0.86790849  0.39318715    -0.05800
H20         H  0.53106747  0.83060981  0.43069597     0.08000
H21         H  0.52349156  0.87758183  0.37346474     0.09200
Cu22       Cu  0.53602082  0.86029201  0.99378553     0.44200
Cu23       Cu  0.51987121  0.89655852  0.44849845     0.42000
Cu24       Cu  0.51960526  0.89327114  0.03955072     0.43900
N25         N  0.53426577  0.85967980  0.04419105    -0.34500
N26         N  0.52788549  0.87136661  0.06152256    -0.28700
C27         C  0.52691344  0.86570999  0.09335181    -0.04800
C28         C  0.53285249  0.84962312  0.09583653     0.07400
C29         C  0.53756168  0.84641590  0.06423563     0.01200
H30         H  0.52197202  0.87257537  0.11303202     0.08800
H31         H  0.54211901  0.83456930  0.05618620     0.07900
N32         N  0.51149184  0.91301862  0.01084138    -0.35900
N33         N  0.51429138  0.91711391  0.47943284    -0.28100
C34         C  0.50682776  0.93060125  0.46987859    -0.03300
C35         C  0.50028227  0.93609130  0.99499019     0.05300
C36         C  0.50473601  0.92677564  0.02174578     0.03400
H37         H  0.50285594  0.93242322  0.44482444     0.08500
H38         H  0.50250117  0.92925599  0.04729413     0.07300
N39         N  0.34639967  0.86530024  0.43004907    -0.27100
N40         N  0.33095430  0.84918447  0.44742328    -0.34900
C41         C  0.31499466  0.83481010  0.42744140    -0.05900
C42         C  0.32058773  0.84195649  0.39567858     0.07300
C43         C  0.34060295  0.86145717  0.39804021    -0.05800
H44         H  0.30017272  0.82035074  0.43553256     0.08000
H45         H  0.34989383  0.87228696  0.37821600     0.09200
Cu46       Cu  0.33105641  0.84795974  0.49755221     0.44200
Cu47       Cu  0.37373800  0.89139264  0.45310935     0.42000
Cu48       Cu  0.36920204  0.89337084  0.04257047     0.43900
N49         N  0.32345782  0.85435210  0.04593297    -0.34500
N50         N  0.33971426  0.86938281  0.06406034    -0.28700
C51         C  0.33380723  0.86528546  0.09589066    -0.04800
C52         C  0.31273292  0.84709536  0.09727780     0.07400
C53         C  0.30691105  0.84056169  0.06522409     0.01200
H54         H  0.34424399  0.87436923  0.11644327     0.08800
H55         H  0.29205732  0.82618188  0.05658213     0.07900
N56         N  0.39644790  0.91356156  0.01306191    -0.35900
N57         N  0.39958054  0.91344469  0.48359099    -0.28100
C58         C  0.41967997  0.92875115  0.47322743    -0.03300
C59         C  0.43300506  0.93884245  0.50024234     0.05300
C60         C  0.41682849  0.92841893  0.02374771     0.03400
H61         H  0.42466474  0.93136110  0.44784159     0.08500
H62         H  0.42163272  0.93180325  0.04929054     0.07300
N63         N  0.46579110  0.12584918  0.44174336    -0.27100
N64         N  0.46212137  0.13917289  0.46006385    -0.34900
C65         C  0.46006619  0.15355223  0.44084390     0.01300
C66         C  0.46235519  0.14911864  0.40862143     0.07300
C67         C  0.46617391  0.13152226  0.41003071    -0.05800
H68         H  0.45807671  0.16695210  0.44979893     0.08000
H69         H  0.47027210  0.12428432  0.38985361     0.09200
Cu70       Cu  0.47164430  0.14326844  0.00635955     0.44200
Cu71       Cu  0.47246475  0.10251074  0.46252351     0.42000
Cu72       Cu  0.47915810  0.10313592  0.05022154     0.43900
N73         N  0.47111276  0.14124557  0.05675620    -0.34500
N74         N  0.47418062  0.12694905  0.07371970    -0.28700
C75         C  0.47353028  0.13096853  0.10601469    -0.04800
C76         C  0.46995535  0.14868446  0.10910464     0.07400
C77         C  0.46835573  0.15453190  0.07736928     0.01200
H78         H  0.47525577  0.12156534  0.12560920     0.08800
H79         H  0.46570412  0.16779626  0.06976273     0.07900
N80         N  0.48416046  0.08227642  0.01879912    -0.35900
N81         N  0.48121154  0.08305340  0.49068686    -0.28100
C82         C  0.48488915  0.06711610  0.47941179    -0.03300
C83         C  0.49222877  0.05742781  0.99996491     0.05300
C84         C  0.48861882  0.06641481  0.02786289     0.03400
H85         H  0.48370302  0.06239376  0.45391169     0.08500
H86         H  0.49044509  0.06262277  0.05299228     0.07300
N87         N  0.65029309  0.13030577  0.43106105    -0.27100
N88         N  0.66779898  0.14417127  0.44832070    -0.34900
C89         C  0.68311401  0.15881609  0.42821715     0.01300
C90         C  0.67510750  0.15406033  0.39652471     0.07300
C91         C  0.65410914  0.13591113  0.39912379    -0.05800
H92         H  0.69873509  0.17247401  0.43625058     0.08000
H93         H  0.64210803  0.12807735  0.37968838     0.09200
Cu94       Cu  0.67023716  0.13701712  0.00061702     0.44200
Cu95       Cu  0.62189368  0.10589012  0.45363607     0.42000
Cu96       Cu  0.62130988  0.10150962  0.04303365     0.43900
N97         N  0.66827764  0.13696389  0.05082425    -0.34500
N98         N  0.65010986  0.12437250  0.06726292    -0.28700
C99         C  0.65370551  0.13046646  0.09914005    -0.04800
C100        C  0.67523322  0.14759410  0.10252311     0.07400
C101        C  0.68382733  0.15129773  0.07139557     0.01200
H102        H  0.64131397  0.12380508  0.11797444     0.08800
H103        H  0.69986596  0.16430013  0.06392731     0.07900
N104        N  0.59510865  0.08125074  0.01184199    -0.35900
N105        N  0.59583042  0.08475243  0.48377201    -0.28100
C106        C  0.57549681  0.06950833  0.47366411    -0.03300
C107        C  0.56161674  0.05664817  0.99434906     0.05300
C108        C  0.57515554  0.06527685  0.02157375     0.03400
H109        H  0.57019385  0.06635623  0.44829397     0.08500
H110        H  0.57038299  0.06125559  0.04690121     0.07300
C111        C  0.48953752  0.94968190  0.99537407    -0.10600
C112        C  0.46651730  0.93867808  0.99601941    -0.04500
C113        C  0.45495523  0.95013603  0.99724797    -0.10600
C114        C  0.46677544  0.97347832  0.99791108     0.10300
C115        C  0.49015067  0.98494803  0.99675330    -0.02400
C116        C  0.50157041  0.97301723  0.99541713     0.10100
C117        C  0.52468962  0.98474461  0.99413023    -0.12400
C118        C  0.53641786  0.00772892  0.99397166    -0.12400
C119        C  0.52550213  0.01989928  0.99524866     0.10100
C120        C  0.50213321  0.00841205  0.99683115    -0.02400
C121        C  0.45587781  0.98566564  0.99947559    -0.12600
C122        C  0.46761893  0.00864078  0.99986494    -0.12600
C123        C  0.49071639  0.02034412  0.99846557     0.10300
C124        C  0.50274705  0.04366935  0.99839559    -0.10600
C125        C  0.52568685  0.05465374  0.99631937    -0.04500
C126        C  0.53725419  0.04325021  0.99485957    -0.10600
H127        H  0.53392228  0.97620302  0.99306770     0.07600
H128        H  0.55417771  0.01592926  0.99276106     0.07600
H129        H  0.43941930  0.97912289  0.50106069     0.07800
H130        H  0.45888824  0.01888213  0.50205712     0.07800
H131        H  0.45741686  0.92083620  0.99562945     0.04200
H132        H  0.53476754  0.07250319  0.99624679     0.04200
O133        O  0.22929191  0.50258764  0.27769613    -0.72700
O134        O  0.26696461  0.50077570  0.20470521    -0.73700
O135        O  0.22500767  0.49852862  0.20824233    -0.62300
O136        O  0.27088887  0.50505996  0.27372617    -0.70700
O137        O  0.25432045  0.46897878  0.27908918    -0.70300
O138        O  0.20892256  0.46245918  0.21218826    -0.61500
O139        O  0.25088781  0.46478859  0.20996210    -0.74100
O140        O  0.21250663  0.46625770  0.28141128    -0.72800
Cu141      Cu  0.24856717  0.50297590  0.24084589     1.04600
Cu142      Cu  0.23108200  0.46437820  0.24571439     1.04300
C143        C  0.21505946  0.48467418  0.29118815     0.93500
C144        C  0.26545025  0.48251992  0.19640478     0.92600
C145        C  0.20941378  0.47950457  0.20001078     0.84800
C146        C  0.26999038  0.48810176  0.28684845     0.91000
O147        O  0.26188515  0.77429224  0.28184809    -0.72700
O148        O  0.22034997  0.73277072  0.21377900    -0.73700
O149        O  0.26095164  0.77323614  0.21242444    -0.62300
O150        O  0.22130391  0.73410839  0.28365113    -0.70700
O151        O  0.20319760  0.75246585  0.28279961    -0.70300
O152        O  0.24301180  0.79153407  0.21177663    -0.61500
O153        O  0.20210574  0.75099080  0.21322482    -0.74100
O154        O  0.24405953  0.79281660  0.28136202    -0.72800
Cu155      Cu  0.24170786  0.75294194  0.24792383     1.04600
Cu156      Cu  0.22245115  0.77258004  0.24725466     1.04300
C157        C  0.25962409  0.79015925  0.29248422     0.93500
C158        C  0.20476608  0.73535710  0.20260898     0.92600
C159        C  0.25855964  0.78883303  0.20095823     0.84800
C160        C  0.20609064  0.73724096  0.29461709     0.91000
N161        N  0.12149151  0.46872083  0.06626997    -0.27100
N162        N  0.13274865  0.46139719  0.04996614    -0.34900
C163        C  0.14593614  0.45850300  0.07084503     0.01300
C164        C  0.14294106  0.46420190  0.10194889     0.07300
C165        C  0.12753543  0.47093741  0.09816742    -0.05800
H166        H  0.15816801  0.45430738  0.06349344     0.08000
H167        H  0.12205619  0.47800606  0.11682762     0.09200
Cu168      Cu  0.13988979  0.46622555  0.49660883     0.44200
Cu169      Cu  0.10034356  0.47726355  0.04251969     0.42000
Cu170      Cu  0.11130805  0.48815205  0.45197204     0.43900
N171        N  0.14568851  0.47465401  0.44774178    -0.34500
N172        N  0.13555964  0.48315082  0.43099116    -0.28700
C173        C  0.14359748  0.48744181  0.40026872    -0.04800
C174        C  0.15941388  0.48118069  0.39773632     0.07400
C175        C  0.16041337  0.47337503  0.42839661     0.01200
H176        H  0.13856714  0.49489062  0.38143019     0.08800
H177        H  0.17110410  0.46721071  0.43610811     0.07900
N178        N  0.08655152  0.48939690  0.47850428    -0.35900
N179        N  0.08124866  0.48507014  0.01180140    -0.28100
C180        C  0.06577210  0.48986609  0.02130040    -0.03300
C181        C  0.05896613  0.49467562  0.49219447     0.05300
C182        C  0.07267712  0.49590193  0.46705801     0.03400
H183        H  0.06137664  0.49036658  0.04651834     0.08500
H184        H  0.07319065  0.50206608  0.44258163     0.07300
N185        N  0.12231284  0.65439889  0.06567707    -0.27100
N186        N  0.13319841  0.67286166  0.04899123    -0.34900
C187        C  0.14698576  0.68902026  0.06926307     0.01300
C188        C  0.14479097  0.68055095  0.10047118     0.07300
C189        C  0.12906651  0.65840772  0.09729465    -0.05800
H190        H  0.15861726  0.70556279  0.06151876     0.08000
H191        H  0.12391678  0.64587832  0.11590992     0.09200
Cu192      Cu  0.12953401  0.67510672  0.49658442     0.44200
Cu193      Cu  0.10031302  0.62475811  0.04258156     0.42000
Cu194      Cu  0.10313768  0.62499989  0.44901450     0.43900
N195        N  0.13363001  0.67407277  0.44672210    -0.34500
N196        N  0.12458673  0.65581576  0.42900522    -0.28700
C197        C  0.13244495  0.66082378  0.39823287    -0.04800
C198        C  0.14695224  0.68331147  0.39669136     0.07400
C199        C  0.14742807  0.69105701  0.42795034     0.01200
H200        H  0.12869008  0.64886266  0.37895201     0.08800
H201        H  0.15770814  0.70772830  0.43674329     0.07900
N202        N  0.08172035  0.59742930  0.47649371    -0.35900
N203        N  0.07963219  0.59815377  0.01239784    -0.28100
C204        C  0.06594461  0.57742155  0.02236867    -0.03300
C205        C  0.05717420  0.56359448  0.49167452     0.05300
C206        C  0.06836828  0.57682323  0.46533080     0.03400
H207        H  0.06419896  0.57197763  0.04753181     0.08500
H208        H  0.06747825  0.57166557  0.44010624     0.07300
N209        N  0.86517606  0.34453784  0.06838067    -0.27100
N210        N  0.85373664  0.32664789  0.05038333    -0.34900
C211        C  0.83882868  0.31042565  0.06907114     0.01300
C212        C  0.84074613  0.31845088  0.10041925     0.07300
C213        C  0.85774708  0.34009018  0.09943115    -0.05800
H214        H  0.82710013  0.29413600  0.06025699     0.08000
H215        H  0.86382965  0.35181075  0.11946621     0.09200
Cu216      Cu  0.84719598  0.33128622  0.49701244     0.44200
Cu217      Cu  0.88938819  0.37377181  0.04768177     0.42000
Cu218      Cu  0.89170660  0.37395411  0.45206976     0.43900
N219        N  0.85001604  0.33028796  0.44709747    -0.34500
N220        N  0.86611381  0.34567594  0.42959122    -0.28700
C221        C  0.86239048  0.33946605  0.39771562    -0.04800
C222        C  0.84329153  0.31903866  0.39563657     0.07400
C223        C  0.83585289  0.31402530  0.42735709     0.01200
H224        H  0.87274442  0.34901310  0.37762727     0.08800
H225        H  0.82084663  0.29986889  0.43554592     0.07900
N226        N  0.91366393  0.39969856  0.48308266    -0.35900
N227        N  0.91224837  0.39992017  0.01940228    -0.28100
C228        C  0.92607285  0.42043733  0.03035366    -0.03300
C229        C  0.93863452  0.43282456  0.50143209     0.05300
C230        C  0.92907608  0.42005496  0.47369823     0.03400
H231        H  0.92662552  0.42592996  0.05530110     0.08500
H232        H  0.93198064  0.42563873  0.44854993     0.07300
N233        N  0.86593292  0.52036151  0.07315168    -0.27100
N234        N  0.85609966  0.52953957  0.05733971    -0.34900
C235        C  0.84334149  0.53286785  0.07818985     0.01300
C236        C  0.84502932  0.52527850  0.10862061     0.07300
C237        C  0.85954256  0.51750120  0.10474579    -0.05800
H238        H  0.83312959  0.53977046  0.07148082     0.08000
H239        H  0.86492323  0.51021523  0.12336696     0.09200
Cu240      Cu  0.86537298  0.54120972  0.50903175     0.44200
Cu241      Cu  0.88744209  0.51250462  0.04966871     0.42000
Cu242      Cu  0.89808430  0.52562531  0.46253717     0.43900
N243        N  0.86601764  0.54196130  0.45863162    -0.34500
N244        N  0.87747694  0.53564235  0.44071406    -0.28700
C245        C  0.87155517  0.53496141  0.40896081    -0.04800
C246        C  0.85580793  0.54138413  0.40716000     0.07400
C247        C  0.85263483  0.54546950  0.43911584     0.01200
H248        H  0.87713354  0.52884666  0.38905736     0.08800
H249        H  0.84029192  0.54913896  0.44780469     0.07900
N250        N  0.91570921  0.51505533  0.49162151    -0.35900
N251        N  0.90965364  0.50876795  0.02039349    -0.28100
C252        C  0.92409007  0.50268389  0.03069869    -0.03300
C253        C  0.93760068  0.50227678  0.50697046     0.05300
C254        C  0.93061760  0.50982514  0.48080467     0.03400
H255        H  0.92538456  0.49820662  0.05565157     0.08500
H256        H  0.93531874  0.51054267  0.45544044     0.07300
C257        C  0.04414946  0.53932123  0.49219681    -0.10600
C258        C  0.05565626  0.52789646  0.49015679    -0.04500
C259        C  0.04496962  0.50497736  0.49264126    -0.10600
C260        C  0.02175948  0.49287456  0.49600912     0.10300
C261        C  0.00975771  0.50423806  0.49755690    -0.02400
C262        C  0.02104170  0.52756815  0.49617221     0.10100
C263        C  0.00890782  0.53849414  0.49840285    -0.12400
C264        C  0.98608578  0.52677597  0.50161265    -0.12400
C265        C  0.97447836  0.50366317  0.50241058     0.10100
C266        C  0.98642120  0.49226047  0.50037661    -0.02400
C267        C  0.01017922  0.46976891  0.49719908    -0.12600
C268        C  0.98725961  0.45800566  0.49932645    -0.12600
C269        C  0.97506325  0.46890818  0.50080833     0.10300
C270        C  0.95180844  0.45712850  0.50280267    -0.10600
C271        C  0.94036220  0.46862493  0.50562403    -0.04500
C272        C  0.95126049  0.49162331  0.50537713    -0.10600
H273        H  0.01698584  0.55626373  0.49753097     0.07600
H274        H  0.97757843  0.53601687  0.50329940     0.07600
H275        H  0.01875891  0.46057488  0.49602042     0.07800
H276        H  0.97913748  0.44022776  0.49987810     0.07800
H277        H  0.07340218  0.53710024  0.48761169     0.04200
H278        H  0.92256702  0.45947604  0.50730122     0.04200
O279        O  0.44789215  0.20322551  0.29190639    -0.72700
O280        O  0.44749664  0.24255215  0.22028714    -0.73700
O281        O  0.44694877  0.20142078  0.22238918    -0.62300
O282        O  0.44847589  0.24401935  0.28966115    -0.70700
O283        O  0.48472982  0.26193399  0.28921524    -0.70300
O284        O  0.48323206  0.21912123  0.22175371    -0.61500
O285        O  0.48387655  0.26025269  0.21962678    -0.74100
O286        O  0.48430704  0.22126384  0.29147446    -0.72800
Cu287      Cu  0.44645875  0.22218055  0.25601470     1.04600
Cu288      Cu  0.48529166  0.24124050  0.25542351     1.04300
C289        C  0.46620610  0.20622742  0.30328667     0.93500
C290        C  0.46564529  0.25796320  0.20912128     0.92600
C291        C  0.46479446  0.20329127  0.21148012     0.84800
C292        C  0.46680354  0.25982685  0.30021307     0.91000
O293        O  0.73688107  0.51035155  0.22464651    -0.72700
O294        O  0.77815571  0.51430327  0.29604466    -0.73700
O295        O  0.73679009  0.51290913  0.29364462    -0.62300
O296        O  0.77818126  0.51199012  0.22697707    -0.70700
O297        O  0.79525059  0.54821831  0.22417851    -0.70300
O298        O  0.75394450  0.54909771  0.29124619    -0.61500
O299        O  0.79559959  0.55060056  0.29376862    -0.74100
O300        O  0.75381639  0.54668310  0.22207664    -0.72800
Cu301      Cu  0.75694955  0.51117530  0.26046687     1.04600
Cu302      Cu  0.77528961  0.54993167  0.25777018     1.04300
C303        C  0.73850430  0.52784456  0.21241436     0.93500
C304        C  0.79352777  0.53292072  0.30616202     0.92600
C305        C  0.73833434  0.53105464  0.30255281     0.84800
C306        C  0.79339385  0.52998712  0.21495908     0.91000
O307        O  0.54739963  0.79302749  0.28095794    -0.72700
O308        O  0.54464629  0.75031422  0.21321881    -0.73700
O309        O  0.54886957  0.79289441  0.21171883    -0.62300
O310        O  0.54293477  0.75024392  0.28259822    -0.70700
O311        O  0.50667078  0.73535327  0.28070108    -0.70300
O312        O  0.51277089  0.77754903  0.20945619    -0.61500
O313        O  0.50838285  0.73496665  0.21095083    -0.74100
O314        O  0.51125096  0.77806346  0.27872471    -0.72800
Cu315      Cu  0.54720517  0.77211589  0.24723144     1.04600
Cu316      Cu  0.50851091  0.75592194  0.24487773     1.04300
C317        C  0.52989793  0.79255985  0.29043339     0.93500
C318        C  0.52609807  0.73595432  0.20117521     0.92600
C319        C  0.53174501  0.79219628  0.19947173     0.84800
C320        C  0.52384475  0.73611313  0.29287084     0.91000
N321        N  0.35361893  0.49738967  0.42668508    -0.27100
N322        N  0.33891098  0.49962788  0.44365553    -0.34900
C323        C  0.32522237  0.50188141  0.42301925     0.01300
C324        C  0.33160544  0.50126605  0.39132741     0.07300
C325        C  0.34948512  0.49801863  0.39444102    -0.05800
H326        H  0.31077826  0.50247735  0.43053463     0.08000
H327        H  0.35825996  0.49549813  0.37480501     0.09200
Cu328      Cu  0.33578175  0.49618311  0.49372427     0.44200
Cu329      Cu  0.37735554  0.49233911  0.44992771     0.42000
Cu330      Cu  0.37606648  0.48434063  0.04250822     0.43900
N331        N  0.32877326  0.47282580  0.04554639    -0.34500
N332        N  0.34627921  0.47781347  0.06382088    -0.28700
C333        C  0.34124102  0.47877902  0.09547160    -0.04800
C334        C  0.31943291  0.47373760  0.09678237     0.07400
C335        C  0.31222218  0.47028127  0.06468488     0.01200
H336        H  0.35273472  0.48354423  0.11579166     0.08800
H337        H  0.29648126  0.46744537  0.05567851     0.07900
N338        N  0.40287602  0.49004682  0.01316397    -0.35900
N339        N  0.40032788  0.48999623  0.48008667    -0.28100
C340        C  0.42006215  0.49336614  0.47038836    -0.03300
C341        C  0.43197296  0.49334313  0.49759105     0.05300
C342        C  0.42243948  0.49308482  0.02385975     0.03400
H343        H  0.42618198  0.49771505  0.44566208     0.08500
H344        H  0.42678270  0.49322665  0.04940210     0.07300
N345        N  0.52950599  0.65703150  0.06374908    -0.27100
N346        N  0.53478670  0.67493075  0.04660809    -0.34900
C347        C  0.53612588  0.69069565  0.06665811     0.01300
C348        C  0.53161786  0.68251030  0.09816066     0.07300
C349        C  0.52730315  0.66099089  0.09546597    -0.05800
H350        H  0.53919613  0.70666888  0.05865509     0.08000
H351        H  0.52173192  0.64875853  0.11458238     0.09200
Cu352      Cu  0.53156049  0.67248312  0.49641394     0.44200
Cu353      Cu  0.52362058  0.62790035  0.04123729     0.42000
Cu354      Cu  0.51241257  0.62261666  0.45193914     0.43900
N355        N  0.52606479  0.67037521  0.44669393    -0.34500
N356        N  0.51845772  0.65198593  0.42961878    -0.28700
C357        C  0.51533130  0.65608790  0.39827710    -0.04800
C358        C  0.52150417  0.67821840  0.39575403     0.07400
C359        C  0.52802915  0.68656155  0.42706383     0.01200
H360        H  0.50833308  0.64369715  0.37927180     0.08800
H361        H  0.53348895  0.70320510  0.43515846     0.07900
N362        N  0.50869411  0.59650871  0.48140322    -0.35900
N363        N  0.51703228  0.60093175  0.01183917    -0.28100
C364        C  0.51230175  0.58092455  0.02266423    -0.03300
C365        C  0.50136866  0.56344029  0.49800529     0.05300
C366        C  0.50262649  0.57600648  0.47108653     0.03400
H367        H  0.51134258  0.57648881  0.04824440     0.08500
H368        H  0.49841580  0.57035898  0.44599598     0.07300
N369        N  0.47190634  0.34389304  0.07533317    -0.27100
N370        N  0.46426421  0.32620263  0.05652322    -0.34900
C371        C  0.46155179  0.30902452  0.07444250     0.01300
C372        C  0.46802676  0.31606959  0.10619860     0.07300
C373        C  0.47425381  0.33824660  0.10617594    -0.05800
H374        H  0.45578809  0.29268588  0.06476000     0.08000
H375        H  0.48064870  0.34951183  0.12673519     0.09200
Cu376      Cu  0.46050334  0.32425745  0.50574325     0.44200
Cu377      Cu  0.47966913  0.37464036  0.05569581     0.42000
Cu378      Cu  0.47790886  0.37292024  0.45732135     0.43900
N379        N  0.46224550  0.32443839  0.45529621    -0.34500
N380        N  0.46913006  0.34220499  0.43703358    -0.28700
C381        C  0.46998543  0.33674097  0.40556976    -0.04800
C382        C  0.46294131  0.31442236  0.40417304     0.07400
C383        C  0.45853083  0.30732976  0.43621462     0.01200
H384        H  0.47575799  0.34819980  0.38535843     0.08800
H385        H  0.45405728  0.29116285  0.44533063     0.07900
N386        N  0.48487659  0.40064061  0.48546647    -0.35900
N387        N  0.48578721  0.40210959  0.02716880    -0.28100
C388        C  0.49148942  0.42240805  0.03827759    -0.03300
C389        C  0.49402869  0.43453328  0.50071871     0.05300
C390        C  0.49008326  0.42071222  0.47418060     0.03400
H391        H  0.49419367  0.42726602  0.06381452     0.08500
H392        H  0.49182197  0.42518081  0.44854703     0.07300
N393        N  0.65448353  0.53100121  0.43348751    -0.27100
N394        N  0.67287338  0.53946955  0.45092639    -0.34900
C395        C  0.68967276  0.54329425  0.43136582     0.01300
C396        C  0.68170703  0.53717824  0.39984270     0.07300
C397        C  0.65921416  0.52908811  0.40203867    -0.05800
H398        H  0.70629685  0.54891750  0.43987287     0.08000
H399        H  0.64717550  0.52180479  0.38249070     0.09200
Cu400      Cu  0.67424479  0.54225144  0.50118928     0.44200
Cu401      Cu  0.62419309  0.52170241  0.45538835     0.42000
Cu402      Cu  0.62505282  0.51592188  0.05314929     0.43900
N403        N  0.67005077  0.52121512  0.05647913    -0.34500
N404        N  0.65339741  0.51858612  0.07457906    -0.28700
C405        C  0.65827778  0.51752546  0.10636393    -0.04800
C406        C  0.67881855  0.51920772  0.10784270     0.07400
C407        C  0.68582624  0.52175566  0.07583348     0.01200
H408        H  0.64759989  0.51534636  0.12672480     0.08800
H409        H  0.70126591  0.52380161  0.06721028     0.07900
N410        N  0.59867769  0.51251587  0.02457064    -0.35900
N411        N  0.59712249  0.51483462  0.48473057    -0.28100
C412        C  0.57670753  0.50904741  0.47405105    -0.03300
C413        C  0.56332532  0.50510323  0.50092459     0.05300
C414        C  0.57860086  0.50701700  0.03585614     0.03400
H415        H  0.57168886  0.50681201  0.44854607     0.08500
H416        H  0.57373630  0.50345873  0.06123021     0.07300
C417        C  0.45633290  0.50419744  0.49911491    -0.10600
C418        C  0.46790718  0.52719218  0.49864903    -0.04500
C419        C  0.49086796  0.53921316  0.49901742    -0.10600
C420        C  0.50296268  0.52803511  0.49996744     0.10300
C421        C  0.49157747  0.50466838  0.50008607    -0.02400
C422        C  0.46815735  0.49266414  0.49971210     0.10100
C423        C  0.45730923  0.46956034  0.49963466    -0.12400
C424        C  0.46915439  0.45841025  0.49979980    -0.12400
C425        C  0.49230663  0.46994110  0.50005844     0.10100
C426        C  0.50365470  0.49330514  0.50027943    -0.02400
C427        C  0.52609437  0.53957453  0.50046654    -0.12600
C428        C  0.53791370  0.52844187  0.50083282    -0.12600
C429        C  0.52706288  0.50533826  0.50061022     0.10300
C430        C  0.53894880  0.49389629  0.50068498    -0.10600
C431        C  0.52747657  0.47089853  0.50043840    -0.04500
C432        C  0.50447685  0.45879229  0.50014113    -0.10600
H433        H  0.43952638  0.45992303  0.49935784     0.07600
H434        H  0.45999651  0.44060975  0.49964951     0.07600
H435        H  0.53526736  0.55737595  0.50048993     0.07800
H436        H  0.55569381  0.53811870  0.50117157     0.07800
H437        H  0.45882365  0.53594911  0.49785745     0.04200
H438        H  0.53664567  0.46222828  0.50057218     0.04200
C439        C  0.53153072  0.70743567  0.31335874    -0.05600
C440        C  0.52173098  0.72035015  0.31870108     0.00400
C441        C  0.51086674  0.71845968  0.34865158    -0.08200
C442        C  0.51052188  0.70382902  0.37254453    -0.05600
C443        C  0.52032831  0.69087067  0.36732343     0.00300
C444        C  0.53084767  0.69248003  0.33706017    -0.08100
C445        C  0.54167340  0.67889218  0.32986526     0.62300
H446        H  0.53962126  0.70906861  0.29016980     0.13000
H447        H  0.50267431  0.70250181  0.39585153     0.13000
C448        C  0.50033510  0.73234451  0.35584496     0.62500
F449        F  0.55368959  0.68544888  0.30120562    -0.22700
F450        F  0.52569492  0.65705119  0.32630727    -0.20000
F451        F  0.55586656  0.68101861  0.35512493    -0.19700
F452        F  0.48255056  0.72627217  0.33508781    -0.19700
F453        F  0.51545307  0.75435001  0.35128881    -0.20100
F454        F  0.49292197  0.72976815  0.38778756    -0.22700
C455        C  0.51433203  0.70209493  0.12286589    -0.05600
C456        C  0.52874803  0.69384733  0.12669415     0.00400
C457        C  0.54159626  0.69869001  0.15565179    -0.08200
C458        C  0.53971581  0.71200197  0.17976771    -0.05600
C459        C  0.52548406  0.72051382  0.17578344     0.00300
C460        C  0.51240892  0.71538529  0.14690603    -0.08100
C461        C  0.49722762  0.72461719  0.14063082     0.62300
H462        H  0.50478734  0.69827953  0.10039397     0.13000
H463        H  0.54957221  0.71608123  0.20195527     0.13000
C464        C  0.55781451  0.69059537  0.16052811     0.62500
F465        F  0.48819167  0.71967461  0.10936185    -0.22700
F466        F  0.50880634  0.74727457  0.14391450    -0.20000
F467        F  0.48012816  0.71576773  0.16273751    -0.19700
F468        F  0.57210570  0.69694512  0.13436140    -0.19700
F469        F  0.54657431  0.66793460  0.16280982    -0.20100
F470        F  0.57021573  0.69903087  0.18889531    -0.22700
C471        C  0.71549319  0.50844748  0.16416595    -0.05600
C472        C  0.72251374  0.52584508  0.18668743     0.00400
C473        C  0.71324876  0.53977471  0.18502370    -0.08200
C474        C  0.69780797  0.53610876  0.15998495    -0.05600
C475        C  0.69147037  0.51915566  0.13689177     0.00300
C476        C  0.69983705  0.50456711  0.13964592    -0.08100
C477        C  0.69287333  0.48469616  0.11754787     0.62300
H478        H  0.72233871  0.49763304  0.16574341     0.13000
H479        H  0.69124880  0.54709375  0.15734650     0.13000
C480        C  0.71943821  0.55834111  0.20943942     0.62500
F481        F  0.68855538  0.46661276  0.13643386    -0.22700
F482        F  0.70979430  0.48894697  0.09631888    -0.20000
F483        F  0.67406807  0.47916671  0.09949298    -0.19700
F484        F  0.74113328  0.57444363  0.20513107    -0.19700
F485        F  0.71658833  0.55033350  0.24109307    -0.20100
F486        F  0.70658809  0.56804129  0.20550426    -0.22700
C487        C  0.68995354  0.51507496  0.36144801    -0.05600
C488        C  0.69436404  0.53585918  0.37196894     0.00400
C489        C  0.71189849  0.55486590  0.35792335    -0.08200
C490        C  0.72555471  0.55241716  0.33531023    -0.05600
C491        C  0.72212002  0.53159149  0.32583840     0.00300
C492        C  0.70332542  0.51243462  0.33834225    -0.08100
C493        C  0.69706219  0.48922913  0.32782358     0.62300
H494        H  0.67621609  0.50082411  0.37242822     0.13000
H495        H  0.73931393  0.56702931  0.32519840     0.13000
C496        C  0.71584647  0.57763602  0.36637499     0.62500
F497        F  0.67758402  0.47352591  0.34185934    -0.22700
F498        F  0.71330470  0.48466820  0.33732472    -0.20000
F499        F  0.69417005  0.48716795  0.29415345    -0.19700
F500        F  0.72238933  0.58260246  0.39876154    -0.19700
F501        F  0.69665123  0.57825998  0.36148486    -0.20100
F502        F  0.73199400  0.59374153  0.34704763    -0.22700
C503        C  0.44628201  0.26978805  0.33949867    -0.05600
C504        C  0.46672510  0.27526872  0.32561511     0.00400
C505        C  0.48583630  0.29494651  0.33643674    -0.08200
C506        C  0.48364377  0.30764269  0.36137473    -0.05600
C507        C  0.46336328  0.30143511  0.37586921     0.00300
C508        C  0.44423874  0.28250941  0.36433616    -0.08100
C509        C  0.42164565  0.27600328  0.37767120     0.62300
H510        H  0.43167012  0.25506509  0.33116888     0.13000
H511        H  0.49797321  0.32231630  0.37061776     0.13000
C512        C  0.50853042  0.30277341  0.32231683     0.62500
F513        F  0.40499741  0.25877904  0.36008267    -0.22700
F514        F  0.41818858  0.29371533  0.37585483    -0.20000
F515        F  0.42012996  0.26944754  0.40992741    -0.19700
F516        F  0.50799714  0.30514833  0.28870832    -0.19700
F517        F  0.51528354  0.28780958  0.32957885    -0.20100
F518        F  0.52413068  0.32293413  0.33514339    -0.22700
C519        C  0.48183056  0.27986635  0.15900275    -0.05600
C520        C  0.46588109  0.27324360  0.18358939     0.00400
C521        C  0.45144336  0.28196866  0.18373334    -0.08200
C522        C  0.45327859  0.29663943  0.15866368    -0.05600
C523        C  0.46866569  0.30247734  0.13349831     0.00300
C524        C  0.48334863  0.29415946  0.13368788    -0.08100
C525        C  0.50061125  0.30035643  0.10731630     0.62300
H526        H  0.49282153  0.27322962  0.15927676     0.13000
H527        H  0.44223024  0.30320053  0.15791746     0.13000
C528        C  0.43439566  0.27620713  0.21031907     0.62500
F529        F  0.51512945  0.29302001  0.11471567    -0.22700
F530        F  0.51264071  0.32297722  0.10413285    -0.20000
F531        F  0.49055698  0.29106817  0.07771356    -0.19700
F532        F  0.44435671  0.28017987  0.24089346    -0.19700
F533        F  0.41839993  0.25428411  0.20772927    -0.20100
F534        F  0.42408023  0.28857289  0.20782544    -0.22700
C535        C  0.81955697  0.52073953  0.38021424    -0.05600
C536        C  0.84097315  0.53872691  0.37946414     0.00400
C537        C  0.84694032  0.55468112  0.35465475    -0.08200
C538        C  0.83098819  0.55213184  0.33117741    -0.05600
C539        C  0.80936363  0.53410638  0.33180499     0.00300
C540        C  0.80354713  0.51798642  0.35678726    -0.08100
C541        C  0.78051891  0.49821378  0.35961640     0.62300
H542        H  0.81544811  0.50888886  0.39973130     0.13000
H543        H  0.83536295  0.56425971  0.31202325     0.13000
C544        C  0.86995925  0.57446319  0.35358498     0.62500
F545        F  0.77794018  0.48658238  0.38823258    -0.22700
F546        F  0.77638362  0.48399866  0.33359920    -0.20000
F547        F  0.76514339  0.50504461  0.35970987    -0.19700
F548        F  0.88507407  0.56747776  0.35000883    -0.19700
F549        F  0.87439869  0.58637071  0.38242060    -0.20100
F550        F  0.87247426  0.58828713  0.32773104    -0.22700
C551        C  0.84077494  0.54544038  0.15481006    -0.05600
C552        C  0.83319710  0.52544256  0.13827471     0.00400
C553        C  0.81342424  0.50679138  0.14801820    -0.08200
C554        C  0.80131377  0.50902165  0.17352218    -0.05600
C555        C  0.80831195  0.52926353  0.18959515     0.00300
C556        C  0.82890318  0.54774654  0.18072860    -0.08100
C557        C  0.83867434  0.56980316  0.19828254     0.62300
H558        H  0.85598128  0.55945323  0.14664562     0.13000
H559        H  0.78584107  0.49489284  0.18046290     0.13000
C560        C  0.80490738  0.48479313  0.13085049     0.62500
F561        F  0.85996787  0.58416121  0.18833353    -0.22700
F562        F  0.83932030  0.56684022  0.23172773    -0.20000
F563        F  0.82620309  0.57959189  0.19164035    -0.19700
F564        F  0.82016792  0.47793448  0.13396916    -0.19700
F565        F  0.80139077  0.48683668  0.09795339    -0.20100
F566        F  0.78528988  0.46868672  0.14400073    -0.22700
C567        C  0.16700717  0.70913765  0.18299162    -0.05600
C568        C  0.18971889  0.72023228  0.17707525     0.00400
C569        C  0.19754532  0.71737159  0.14663597    -0.08200
C570        C  0.18221470  0.70352016  0.12294966    -0.05600
C571        C  0.15947965  0.69245861  0.12866759     0.00300
C572        C  0.15163655  0.69508406  0.15929918    -0.08100
C573        C  0.12723399  0.68369174  0.16663214     0.62300
H574        H  0.16141963  0.71159017  0.20646547     0.13000
H575        H  0.18788833  0.70139998  0.09933745     0.13000
C576        C  0.22190240  0.72960194  0.13861900     0.62500
F577        F  0.12316184  0.69026468  0.19651142    -0.22700
F578        F  0.11877409  0.66121647  0.16773011    -0.20000
F579        F  0.11636551  0.68855174  0.14255461    -0.19700
F580        F  0.23290371  0.72235028  0.15868439    -0.19700
F581        F  0.23048508  0.75194711  0.14329151    -0.20100
F582        F  0.22568408  0.72629251  0.10641424    -0.22700
C583        C  0.18437542  0.70653354  0.37499382    -0.05600
C584        C  0.16159493  0.69618830  0.36950000     0.00400
C585        C  0.15347052  0.69968744  0.33960416    -0.08200
C586        C  0.16860695  0.71307693  0.31565111    -0.05600
C587        C  0.19140159  0.72301530  0.32083492     0.00300
C588        C  0.19952947  0.71998334  0.35113364    -0.08100
C589        C  0.22401212  0.73149862  0.35876956     0.62300
H590        H  0.19020207  0.70398094  0.39832425     0.13000
H591        H  0.16275209  0.71590997  0.29254838     0.13000
C592        C  0.12899698  0.69007020  0.33361189     0.62500
F593        F  0.22814009  0.72847631  0.39103976    -0.22700
F594        F  0.23333432  0.75385571  0.35359000    -0.20000
F595        F  0.23405926  0.72328367  0.33880930    -0.19700
F596        F  0.12016762  0.69667880  0.35833271    -0.19700
F597        F  0.11866014  0.66738431  0.33307695    -0.20100
F598        F  0.12470165  0.69688656  0.30401020    -0.22700
C599        C  0.31163391  0.49686179  0.13368933    -0.05600
C600        C  0.30723671  0.47581436  0.12467312     0.00400
C601        C  0.28980017  0.45721817  0.13962532    -0.08200
C602        C  0.27682998  0.46030458  0.16279720    -0.05600
C603        C  0.28057461  0.48138848  0.17148770     0.00300
C604        C  0.29869385  0.50015459  0.15685475    -0.08100
C605        C  0.30460379  0.52361764  0.16500584     0.62300
H606        H  0.32504058  0.51075966  0.12153971     0.13000
H607        H  0.26336125  0.44598297  0.17398942     0.13000
C608        C  0.28503133  0.43419092  0.13106327     0.62500
F609        F  0.32300729  0.53895022  0.14824036    -0.22700
F610        F  0.30916291  0.52756957  0.19816416    -0.20000
F611        F  0.28737489  0.52689734  0.15639467    -0.19700
F612        F  0.30373379  0.43270892  0.13624639    -0.19700
F613        F  0.27873567  0.42964282  0.09850561    -0.20100
F614        F  0.26835550  0.41833368  0.15000006    -0.22700
C615        C  0.29923215  0.51198747  0.32651101    -0.05600
C616        C  0.28705348  0.49110618  0.31167865     0.00400
C617        C  0.29181813  0.47430300  0.32072312    -0.08200
C618        C  0.30740022  0.47871356  0.34584993    -0.05600
C619        C  0.31848562  0.49918012  0.36164463     0.00300
C620        C  0.31506955  0.51640174  0.35105807    -0.08100
C621        C  0.32864272  0.53952928  0.36488537     0.62300
H622        H  0.29602702  0.52493892  0.31913436     0.13000
H623        H  0.31049360  0.46586864  0.35431524     0.13000
C624        C  0.28082181  0.45185226  0.30421496     0.62500
F625        F  0.32394508  0.55424215  0.34930563    -0.22700
F626        F  0.35073962  0.54672252  0.36065169    -0.20000
F627        F  0.32452813  0.53977741  0.39789425    -0.19700
F628        F  0.28294332  0.45430469  0.27054927    -0.19700
F629        F  0.25880797  0.44024284  0.31235809    -0.20100
F630        F  0.29022866  0.43947618  0.31388465    -0.22700
C631        C  0.19604148  0.49597924  0.37246811    -0.05600
C632        C  0.17311964  0.48286293  0.36919307     0.00400
C633        C  0.16402848  0.47020494  0.34032100    -0.08200
C634        C  0.17831479  0.47154915  0.31519856    -0.05600
C635        C  0.20121823  0.48500048  0.31819293     0.00300
C636        C  0.21034631  0.49726000  0.34741153    -0.08100
C637        C  0.23506729  0.51076308  0.35273574     0.62300
H638        H  0.20265787  0.50507754  0.39509410     0.13000
H639        H  0.17169991  0.46200417  0.29292011     0.13000
C640        C  0.13944450  0.45470053  0.33663974     0.62500
F641        F  0.24043214  0.51963741  0.38401991    -0.22700
F642        F  0.24414500  0.52791322  0.33063167    -0.20000
F643        F  0.24432816  0.49758243  0.34843117    -0.19700
F644        F  0.12866133  0.46661473  0.33585805    -0.19700
F645        F  0.13184595  0.44027086  0.36276509    -0.20100
F646        F  0.13425572  0.44241567  0.30804789    -0.22700
C647        C  0.17425317  0.45514376  0.17051577    -0.05600
C648        C  0.19159657  0.47675481  0.17652730     0.00400
C649        C  0.19111907  0.49450970  0.16007728    -0.08200
C650        C  0.17412030  0.48963402  0.13715316    -0.05600
C651        C  0.15777894  0.46801205  0.13016871     0.00300
C652        C  0.15737586  0.45048938  0.14763917    -0.08100
C653        C  0.13908395  0.42696335  0.14207865     0.62300
H654        H  0.17411472  0.44163087  0.18346552     0.13000
H655        H  0.17385402  0.50268967  0.12339511     0.13000
C656        C  0.20836888  0.51850497  0.16573368     0.62500
F657        F  0.14042785  0.41254682  0.16386220    -0.22700
F658        F  0.14024856  0.42032965  0.11061927    -0.20000
F659        F  0.11892033  0.42563147  0.14621224    -0.19700
F660        F  0.20416758  0.53260928  0.14735753    -0.19700
F661        F  0.22885409  0.52203924  0.15686415    -0.20100
F662        F  0.20860468  0.52395997  0.19837910    -0.22700
C663        C  0.44848396  0.16061926  0.14213890    -0.05600
C664        C  0.46787465  0.15972736  0.13882159     0.00400
C665        C  0.48563335  0.17198422  0.16066091    -0.08200
C666        C  0.48363365  0.18551750  0.18431819    -0.05600
C667        C  0.46447773  0.18712141  0.18708697     0.00300
C668        C  0.44621287  0.17381068  0.16611000    -0.08100
C669        C  0.42453253  0.17369124  0.16799888     0.62300
H670        H  0.43516169  0.15109748  0.12504997     0.13000
H671        H  0.49729591  0.19519991  0.20077397     0.13000
C672        C  0.50687732  0.17137414  0.15828663     0.62500
F673        F  0.40971691  0.16044800  0.14406016    -0.22700
F674        F  0.42809847  0.19476983  0.16372963    -0.20000
F675        F  0.41490751  0.16564887  0.19809747    -0.19700
F676        F  0.51546793  0.17739812  0.12713953    -0.19700
F677        F  0.50279914  0.15035831  0.16482608    -0.20100
F678        F  0.52259226  0.18556759  0.18049685    -0.22700
C679        C  0.47896260  0.18559827  0.38234987    -0.05600
C680        C  0.46388011  0.16295662  0.38018096     0.00400
C681        C  0.44939420  0.15463088  0.35290051    -0.08200
C682        C  0.45098233  0.16931526  0.32811076    -0.05600
C683        C  0.46626235  0.19193575  0.33004462     0.00300
C684        C  0.48034625  0.20036460  0.35787564    -0.08100
C685        C  0.49597062  0.22488063  0.36268256     0.62300
H686        H  0.48956641  0.19168170  0.40378811     0.13000
H687        H  0.44014881  0.16321683  0.30691111     0.13000
C688        C  0.43167999  0.13059092  0.35072331     0.62500
F689        F  0.50582322  0.22959593  0.39341396    -0.22700
F690        F  0.48454936  0.23612503  0.35957195    -0.20000
F691        F  0.51246408  0.23246494  0.33961174    -0.19700
F692        F  0.41886535  0.12470728  0.37856949    -0.19700
F693        F  0.44123660  0.11761117  0.34796742    -0.20100
F694        F  0.41799753  0.12641199  0.32381002    -0.22700
C695        C  0.29665801  0.80791672  0.31830009    -0.05600
C696        C  0.27545089  0.80539195  0.31761403     0.00400
C697        C  0.26985298  0.81638069  0.34171180    -0.08200
C698        C  0.28562634  0.82906516  0.36581820    -0.05600
C699        C  0.30656115  0.83118909  0.36661562     0.00300
C700        C  0.31229325  0.82052380  0.34256008    -0.08100
C701        C  0.33447825  0.82171983  0.34336102     0.62300
H702        H  0.30086183  0.79962583  0.29978901     0.13000
H703        H  0.28161038  0.83718178  0.38487601     0.13000
C704        C  0.24727134  0.81434189  0.34300002     0.62500
F705        F  0.33618539  0.80890995  0.31904567    -0.22700
F706        F  0.33755715  0.81434597  0.37330016    -0.20000
F707        F  0.35099135  0.84320986  0.33879202    -0.19700
F708        F  0.23109246  0.79242526  0.34400245    -0.19700
F709        F  0.24413989  0.82415421  0.31569153    -0.20100
F710        F  0.24490179  0.82453500  0.37047022    -0.22700
C711        C  0.30565627  0.81910972  0.13923696    -0.05600
C712        C  0.30028403  0.83422132  0.12606341     0.00400
C713        C  0.28149150  0.83453257  0.13729896    -0.08200
C714        C  0.26878384  0.81979953  0.16210553    -0.05600
C715        C  0.27367063  0.80409341  0.17516167     0.00300
C716        C  0.29252664  0.80365793  0.16314605    -0.08100
C717        C  0.29876214  0.78681731  0.17432320     0.62300
H718        H  0.31987587  0.81896342  0.12943288     0.13000
H719        H  0.25446675  0.82017127  0.17084023     0.13000
C720        C  0.27476329  0.85019252  0.12264322     0.62500
F721        F  0.31749261  0.78957884  0.15896412    -0.22700
F722        F  0.28188554  0.76585089  0.16683948    -0.20000
F723        F  0.30290009  0.78879801  0.20771910    -0.19700
F724        F  0.26964157  0.84535618  0.08978318    -0.19700
F725        F  0.29189764  0.87160061  0.12578417    -0.20100
F726        F  0.25654544  0.84868239  0.13800323    -0.22700
C727        C  0.55232643  0.83753890  0.13368023    -0.05600
C728        C  0.53261865  0.83670982  0.12474273     0.00400
C729        C  0.51292769  0.82170227  0.14058760    -0.08200
C730        C  0.51368212  0.80790123  0.16493102    -0.05600
C731        C  0.53333571  0.80832913  0.17390825     0.00300
C732        C  0.55323666  0.82380230  0.15817473    -0.08100
C733        C  0.57537759  0.82590460  0.16636792     0.62300
H734        H  0.56708456  0.84899509  0.12076496     0.13000
H735        H  0.49858607  0.79643063  0.17703219     0.13000
C736        C  0.49102420  0.81965183  0.13105005     0.62500
F737        F  0.59215555  0.84173289  0.14752268    -0.22700
F738        F  0.58071942  0.83196260  0.19888474    -0.20000
F739        F  0.57456835  0.80610197  0.16056649    -0.19700
F740        F  0.48733915  0.81567160  0.09773913    -0.19700
F741        F  0.49119367  0.83887858  0.13884442    -0.20100
F742        F  0.47361612  0.80258580  0.14730532    -0.22700
C743        C  0.51431260  0.81456486  0.31334036    -0.05600
C744        C  0.53099104  0.80900891  0.31464813     0.00400
C745        C  0.54761460  0.81879171  0.33925696    -0.08200
C746        C  0.54637378  0.83314538  0.36207543    -0.05600
C747        C  0.52928939  0.83804290  0.36145425     0.00300
C748        C  0.51311552  0.82892564  0.33631208    -0.08100
C749        C  0.49425200  0.83360992  0.33423042     0.62300
H750        H  0.50198030  0.80736411  0.29411659     0.13000
H751        H  0.55860133  0.84035706  0.38145733     0.13000
C752        C  0.56618804  0.81367260  0.34259383     0.62500
F753        F  0.47923793  0.82129086  0.30989624    -0.22700
F754        F  0.50233926  0.85554518  0.32707369    -0.20000
F755        F  0.48317223  0.82861843  0.36368486    -0.19700
F756        F  0.57990838  0.82180276  0.31582578    -0.19700
F757        F  0.55767736  0.79119694  0.34469279    -0.20100
F758        F  0.57886600  0.82312826  0.37044077    -0.22700
C759        C  0.79115164  0.28620684  0.15412180    -0.05600
C760        C  0.79942698  0.27729497  0.17723615     0.00400
C761        C  0.82215886  0.28390684  0.17694971    -0.08200
C762        C  0.83542342  0.29818265  0.15205224    -0.05600
C763        C  0.82675063  0.30612294  0.12820153     0.00300
C764        C  0.80448779  0.30064779  0.12962371    -0.08100
C765        C  0.79495568  0.31025333  0.10558073     0.62300
H766        H  0.77392892  0.28143590  0.15500471     0.13000
H767        H  0.85259212  0.30282059  0.15044653     0.13000
C768        C  0.83260797  0.27647630  0.20298096     0.62500
F769        F  0.77371593  0.30481494  0.11365790    -0.22700
F770        F  0.79448055  0.30239343  0.07435654    -0.20000
F771        F  0.80776438  0.33294056  0.10566737    -0.19700
F772        F  0.82502813  0.25422520  0.19956943    -0.19700
F773        F  0.82750331  0.28066471  0.23386763    -0.20100
F774        F  0.85529852  0.28743701  0.20052348    -0.22700
C775        C  0.81028372  0.27043664  0.33894007    -0.05600
C776        C  0.80199470  0.27947871  0.31608176     0.00400
C777        C  0.81023924  0.30256939  0.31655788    -0.08200
C778        C  0.82479560  0.31529237  0.34202883    -0.05600
C779        C  0.83158248  0.30576889  0.36628803     0.00300
C780        C  0.82522324  0.28323220  0.36373358    -0.08100
C781        C  0.83401299  0.27248160  0.38698074     0.62300
H782        H  0.80447455  0.25295445  0.33793323     0.13000
H783        H  0.83026350  0.33266914  0.34399858     0.13000
C784        C  0.80413322  0.31391813  0.29023851     0.62500
F785        F  0.83180587  0.25333580  0.37363520    -0.22700
F786        F  0.82252948  0.26723060  0.41603428    -0.20000
F787        F  0.85613388  0.28649760  0.39336511    -0.19700
F788        F  0.78235226  0.30827822  0.29336081    -0.19700
F789        F  0.80741711  0.30775326  0.25951887    -0.20100
F790        F  0.81683464  0.33659382  0.29253362    -0.22700
C791        C  0.70623245  0.17465749  0.31658294    -0.05600
C792        C  0.71420384  0.19735812  0.31948513     0.00400
C793        C  0.70764498  0.20544031  0.34645080    -0.08200
C794        C  0.69396717  0.19042559  0.37025320    -0.05600
C795        C  0.68639174  0.16780363  0.36768692     0.00300
C796        C  0.69222503  0.15962435  0.34014676    -0.08100
C797        C  0.68429850  0.13529919  0.33608473     0.62300
H798        H  0.71113665  0.16877103  0.29555018     0.13000
H799        H  0.68927265  0.19628359  0.39154787     0.13000
C800        C  0.71555714  0.22978623  0.35089508     0.62500
F801        F  0.69345411  0.13118035  0.30896760    -0.22700
F802        F  0.66172403  0.12384911  0.33202311    -0.20000
F803        F  0.68995727  0.12753201  0.36346374    -0.19700
F804        F  0.70660433  0.23671267  0.32658116    -0.19700
F805        F  0.73826348  0.24183694  0.34937061    -0.20100
F806        F  0.70936185  0.23416864  0.38083440    -0.22700
C807        C  0.69027258  0.18379031  0.12933447    -0.05600
C808        C  0.68604801  0.16208624  0.13108969     0.00400
C809        C  0.69450668  0.15562120  0.15763366    -0.08200
C810        C  0.70772196  0.17151203  0.18122289    -0.05600
C811        C  0.71265330  0.19355052  0.17906467     0.00300
C812        C  0.70330644  0.19972171  0.15300753    -0.08100
C813        C  0.70758943  0.22306305  0.14922523     0.62300
H814        H  0.68359181  0.18825348  0.10862100     0.13000
H815        H  0.71464467  0.16686301  0.20139171     0.13000
C816        C  0.69020901  0.13224068  0.16022548     0.62500
F817        F  0.69839466  0.22566145  0.12062685    -0.22700
F818        F  0.72998503  0.23766050  0.14833989    -0.20000
F819        F  0.69844834  0.22824069  0.17521503    -0.19700
F820        F  0.69835823  0.12714783  0.13288535    -0.19700
F821        F  0.66783508  0.11780539  0.16214448    -0.20100
F822        F  0.70012032  0.12933875  0.18775303    -0.22700
O823        O  0.77064758  0.27072302  0.71846941    -0.72700
O824        O  0.73116487  0.22931619  0.78756758    -0.73700
O825        O  0.77268197  0.26911371  0.78747914    -0.62300
O826        O  0.72935781  0.23087456  0.71787351    -0.70700
O827        O  0.74656463  0.21177407  0.71464231    -0.70300
O828        O  0.78984491  0.25010862  0.78337857    -0.61500
O829        O  0.74823803  0.21020117  0.78410894    -0.74100
O830        O  0.78776068  0.25160740  0.71446341    -0.72800
Cu831      Cu  0.75034306  0.25063683  0.75302502     1.04600
Cu832      Cu  0.76865403  0.23022887  0.74906918     1.04300
C833        C  0.78566821  0.26794380  0.70576688     0.93500
C834        C  0.73318014  0.21302718  0.79671179     0.92600
C835        C  0.78853827  0.26610901  0.79583370     0.84800
C836        C  0.73125218  0.21530840  0.70503988     0.91000
N837        N  0.52720229  0.87187576  0.92655456    -0.27100
N838        N  0.53351959  0.85989234  0.94341145    -0.34900
C839        C  0.53671544  0.84688056  0.92279031     0.01300
C840        C  0.53202265  0.85062071  0.89134277     0.07300
C841        C  0.52625722  0.86676324  0.89449215    -0.05800
H842        H  0.54148001  0.83505731  0.93026082     0.08000
H843        H  0.52170060  0.87423767  0.87508986     0.09200
Cu844      Cu  0.52739197  0.85729941  0.49292419     0.44200
Cu845      Cu  0.51916951  0.89361322  0.94908284     0.42000
Cu846      Cu  0.52365236  0.89764150  0.54039498     0.43900
N847        N  0.52801700  0.85738412  0.54316778    -0.34500
N848        N  0.52716594  0.87240712  0.56152132    -0.28700
C849        C  0.52820750  0.86763312  0.59332207    -0.04800
C850        C  0.52944605  0.84845951  0.59471617     0.07400
C851        C  0.52946205  0.84267815  0.56237021     0.01200
H852        H  0.52857624  0.87770210  0.61358493     0.08800
H853        H  0.53041143  0.82868441  0.55338094     0.07900
N854        N  0.51592642  0.91770786  0.51189218    -0.35900
N855        N  0.51129661  0.91309711  0.97834830    -0.28100
C856        C  0.50439571  0.92687683  0.96789919    -0.03300
C857        C  0.50384581  0.94029306  0.49740036     0.05300
C858        C  0.50960978  0.93163773  0.52357003     0.03400
H859        H  0.50184710  0.92943457  0.94246771     0.08500
H860        H  0.50817855  0.93435476  0.54931296     0.07300
N861        N  0.34304756  0.86368275  0.92855443    -0.27100
N862        N  0.32638093  0.84931868  0.94627626    -0.34900
C863        C  0.31083968  0.83416400  0.92658502    -0.05900
C864        C  0.31792746  0.83896253  0.89464096     0.07300
C865        C  0.33840090  0.85799225  0.89663191    -0.05800
H866        H  0.29522191  0.82085216  0.93488662     0.08000
H867        H  0.34874076  0.86743827  0.87650935     0.09200
Cu868      Cu  0.32463695  0.85145295  0.99612974     0.44200
Cu869      Cu  0.37060779  0.88994384  0.95089778     0.42000
Cu870      Cu  0.37316986  0.89073445  0.54540882     0.43900
N871        N  0.32926381  0.84919730  0.54750301    -0.34500
N872        N  0.34442989  0.86487345  0.56624264    -0.28700
C873        C  0.33765292  0.86051597  0.59772793    -0.04800
C874        C  0.31715507  0.84142544  0.59817557     0.07400
C875        C  0.31260967  0.83469065  0.56598944     0.01200
H876        H  0.34690360  0.87035948  0.61864321     0.08800
H877        H  0.29823809  0.82011701  0.55662379     0.07900
N878        N  0.39959482  0.91318864  0.51612971    -0.35900
N879        N  0.39678249  0.91226313  0.98063481    -0.28100
C880        C  0.41731212  0.92616740  0.97014696    -0.03300
C881        C  0.43054770  0.93696953  0.99693900     0.05300
C882        C  0.41980346  0.92836574  0.52698295     0.03400
H883        H  0.42253722  0.92741425  0.94497517     0.08500
H884        H  0.42493331  0.93069392  0.55244473     0.07300
N885        N  0.47814184  0.13228873  0.93780960    -0.27100
N886        N  0.47443731  0.14560468  0.95609248    -0.34900
C887        C  0.47360454  0.16073499  0.93697255     0.01300
C888        C  0.47671670  0.15671484  0.90493510     0.07300
C889        C  0.47968686  0.13861644  0.90622106    -0.05800
H890        H  0.47117091  0.17388375  0.94581086     0.08000
H891        H  0.48316304  0.13095888  0.88590894     0.09200
Cu892      Cu  0.46369553  0.13997741  0.51039380     0.44200
Cu893      Cu  0.48163841  0.10703864  0.95873979     0.42000
Cu894      Cu  0.48468412  0.10970654  0.55215528     0.43900
N895        N  0.47201415  0.14446915  0.55931364    -0.34500
N896        N  0.48033651  0.13391846  0.57535810    -0.28700
C897        C  0.48493275  0.14172299  0.60643684    -0.04800
C898        C  0.47933839  0.15801714  0.60950552     0.07400
C899        C  0.47108729  0.15914029  0.57929625     0.01200
H900        H  0.49189084  0.13609636  0.62522428     0.08800
H901        H  0.46506688  0.17003601  0.57221009     0.07900
N902        N  0.48605232  0.08600588  0.52243400    -0.35900
N903        N  0.48505259  0.08382511  0.98637538    -0.28100
C904        C  0.49012369  0.06908759  0.97425123    -0.03300
C905        C  0.49224381  0.05956456  0.50517916     0.05300
C906        C  0.49305683  0.07213754  0.53188138     0.03400
H907        H  0.49332481  0.06782636  0.94867688     0.08500
H908        H  0.49940292  0.07200131  0.55607633     0.07300
N909        N  0.65192335  0.13047790  0.93211493    -0.27100
N910        N  0.66968773  0.14096244  0.95078210    -0.34900
C911        C  0.68666874  0.15536206  0.93264616     0.01300
C912        C  0.67963894  0.15379870  0.90057134     0.07300
C913        C  0.65734918  0.13808283  0.90115803    -0.05800
H914        H  0.70270161  0.16686745  0.94260768     0.08000
H915        H  0.64596275  0.13272421  0.88064137     0.09200
Cu916      Cu  0.66966377  0.14481616  0.49858812     0.44200
Cu917      Cu  0.62156760  0.10673836  0.95183023     0.42000
Cu918      Cu  0.62287878  0.10817631  0.54489362     0.43900
N919        N  0.66862654  0.14696329  0.54867312    -0.34500
N920        N  0.65147525  0.13354017  0.56648340    -0.28700
C921        C  0.65588925  0.14000267  0.59813324    -0.04800
C922        C  0.67682812  0.15832722  0.59992990     0.07400
C923        C  0.68426727  0.16231050  0.56811323     0.01200
H924        H  0.64452775  0.13234295  0.61809098     0.08800
H925        H  0.69986701  0.17555585  0.55963385     0.07900
N926        N  0.59617272  0.08565608  0.51625468    -0.35900
N927        N  0.59484590  0.08331012  0.97954464    -0.28100
C928        C  0.57455857  0.06872810  0.96820430    -0.03300
C929        C  0.56248490  0.06025974  0.50092562     0.05300
C930        C  0.57605525  0.07105828  0.52742566     0.03400
H931        H  0.56922913  0.06779178  0.94300216     0.08500
H932        H  0.57129412  0.06932687  0.55289878     0.07300
C933        C  0.49248589  0.95326168  0.49888097    -0.10600
C934        C  0.46946477  0.94171912  0.49925953    -0.04500
C935        C  0.45736316  0.95263411  0.50019222    -0.10600
C936        C  0.46863461  0.97598891  0.50047888     0.10300
C937        C  0.49202079  0.98796907  0.50023988    -0.02400
C938        C  0.50397493  0.97655919  0.49956944     0.10100
C939        C  0.52709087  0.98874048  0.49948288    -0.12400
C940        C  0.53832112  0.01168021  0.49996858    -0.12400
C941        C  0.52688225  0.02334763  0.50057082     0.10100
C942        C  0.50350116  0.01141873  0.50070195    -0.02400
C943        C  0.45721622  0.98769758  0.50097953    -0.12600
C944        C  0.46847622  0.01069512  0.50152435    -0.12600
C945        C  0.49159644  0.02288915  0.50151962     0.10300
C946        C  0.50321174  0.04623208  0.50279873    -0.10600
C947        C  0.52622807  0.05764181  0.50267731    -0.04500
C948        C  0.53818980  0.04663980  0.50131398    -0.10600
H949        H  0.53672437  0.98060025  0.49906401     0.07600
H950        H  0.55611842  0.02023294  0.49995895     0.07600
H951        H  0.43811294  0.97749414  0.00044076     0.07800
H952        H  0.45841035  0.01720476  0.00110209     0.07800
H953        H  0.46078922  0.92387862  0.49874399     0.04200
H954        H  0.53502683  0.07547986  0.50356822     0.04200
O955        O  0.22475820  0.49542439  0.78210708    -0.72700
O956        O  0.26437400  0.49647926  0.71028542    -0.73700
O957        O  0.22238880  0.49369423  0.71266253    -0.62300
O958        O  0.26669790  0.49839482  0.77970996    -0.70700
O959        O  0.25066247  0.46211643  0.78107149    -0.70300
O960        O  0.20590472  0.45751222  0.71398152    -0.61500
O961        O  0.24795977  0.46016274  0.71139500    -0.74100
O962        O  0.20865512  0.45925763  0.78392011    -0.72800
Cu963      Cu  0.24508312  0.49721047  0.74609298     1.04600
Cu964      Cu  0.22771305  0.45848989  0.74763791     1.04300
C965        C  0.21042946  0.47721511  0.79464815     0.93500
C966        C  0.26273722  0.47856835  0.69980798     0.92600
C967        C  0.20703660  0.47504481  0.70260664     0.84800
C968        C  0.26586175  0.48098804  0.79085905     0.91000
O969        O  0.26057874  0.76915811  0.78069319    -0.72700
O970        O  0.21870318  0.72815017  0.71197180    -0.73700
O971        O  0.26021193  0.76785216  0.71113001    -0.62300
O972        O  0.21908518  0.72951664  0.78171364    -0.70700
O973        O  0.20226799  0.74899667  0.78058945    -0.70300
O974        O  0.24325371  0.78710098  0.70918975    -0.61500
O975        O  0.20143072  0.74734278  0.71099763    -0.74100
O976        O  0.24370704  0.78857734  0.77855660    -0.72800
Cu977      Cu  0.24020104  0.74797292  0.74638466     1.04600
Cu978      Cu  0.22205874  0.76864999  0.74474227     1.04300
C979        C  0.25871573  0.78542406  0.79059788     0.93500
C980        C  0.20348199  0.73129735  0.70071217     0.92600
C981        C  0.25867874  0.78386782  0.69930139     0.84800
C982        C  0.20425237  0.73323638  0.79263136     0.91000
N983        N  0.12360698  0.46877694  0.56369555    -0.27100
N984        N  0.13691002  0.46423881  0.54695333    -0.34900
C985        C  0.15020615  0.46150644  0.56782218     0.01300
C986        C  0.14512785  0.46435825  0.59935287     0.07300
C987        C  0.12834815  0.46923534  0.59594030    -0.05800
H988        H  0.16369476  0.45918893  0.56044543     0.08000
H989        H  0.12099742  0.47390118  0.61524266     0.09200
Cu990      Cu  0.13362212  0.46019221  0.99948241     0.44200
Cu991      Cu  0.10148459  0.47629381  0.54047840     0.42000
Cu992      Cu  0.10608753  0.48254274  0.95243506     0.43900
N993        N  0.13827872  0.46600999  0.94976633    -0.34500
N994        N  0.12880489  0.47483235  0.93214467    -0.28700
C995        C  0.13671031  0.47793744  0.90133843    -0.04800
C996        C  0.15158890  0.47042248  0.89966922     0.07400
C997        C  0.15230505  0.46322374  0.93088807     0.01200
H998        H  0.13224174  0.48538939  0.88176670     0.08800
H999        H  0.16281531  0.45707627  0.93956446     0.07900
N1000       N  0.08357442  0.48742671  0.97958474    -0.35900
N1001       N  0.08256275  0.48454562  0.51001034    -0.28100
C1002       C  0.06587011  0.48762842  0.51913772    -0.03300
C1003       C  0.05787486  0.49541806  0.99391152     0.05300
C1004       C  0.06974015  0.49398248  0.96798252     0.03400
H1005       H  0.06014302  0.48625285  0.54404311     0.08500
H1006       H  0.06892890  0.49817192  0.94268601     0.07300
N1007       N  0.11986577  0.65378666  0.56276989    -0.27100
N1008       N  0.13047103  0.67258553  0.54686509    -0.34900
C1009       C  0.14431802  0.68834746  0.56761145     0.01300
C1010       C  0.14246459  0.67915209  0.59824930     0.07300
C1011       C  0.12687798  0.65707838  0.59420444    -0.05800
H1012       H  0.15598493  0.70500732  0.56042158     0.08000
H1013       H  0.12222099  0.64403788  0.61182744     0.09200
Cu1014     Cu  0.13174463  0.67500893  0.99866562     0.44200
Cu1015     Cu  0.09860218  0.62450273  0.53892494     0.42000
Cu1016     Cu  0.09840919  0.62656334  0.95147217     0.43900
N1017       N  0.13315411  0.67431309  0.94817661    -0.34500
N1018       N  0.12108204  0.65652186  0.93023088    -0.28700
C1019       C  0.12747818  0.66112660  0.89870432    -0.04800
C1020       C  0.14426775  0.68287068  0.89700522     0.07400
C1021       C  0.14752366  0.69058871  0.92883856     0.01200
H1022       H  0.12115641  0.64929703  0.87883377     0.08800
H1023       H  0.16010758  0.70657760  0.93754346     0.07900
N1024       N  0.07884691  0.59877692  0.97994804    -0.35900
N1025       N  0.07971320  0.59758971  0.50874064    -0.28100
C1026       C  0.06491093  0.57724417  0.51876687    -0.03300
C1027       C  0.05591951  0.56443067  0.99509128     0.05300
C1028       C  0.06464192  0.57842353  0.96863008     0.03400
H1029       H  0.06100411  0.57246485  0.54413104     0.08500
H1030       H  0.06167001  0.57392277  0.94296350     0.07300
N1031       N  0.86248108  0.34722766  0.56536901    -0.27100
N1032       N  0.84641005  0.33202752  0.54725460    -0.34900
C1033       C  0.83050240  0.31744435  0.56674576     0.01300
C1034       C  0.83665832  0.32384066  0.59885957     0.07300
C1035       C  0.85720675  0.34263351  0.59724138    -0.05800
H1036       H  0.81582293  0.30293415  0.55811771     0.08000
H1037       H  0.86746763  0.35223487  0.61763953     0.09200
Cu1038     Cu  0.85716105  0.32521052  0.00081536     0.44200
Cu1039     Cu  0.88995696  0.37327738  0.54384377     0.42000
Cu1040     Cu  0.89493780  0.37263142  0.95676791     0.43900
N1041       N  0.85845870  0.32606942  0.95069808    -0.34500
N1042       N  0.87199788  0.34356599  0.93358279    -0.28700
C1043       C  0.86710176  0.33900750  0.90145884    -0.04800
C1044       C  0.84995457  0.31746549  0.89864679     0.07400
C1045       C  0.84472232  0.30999820  0.93035228     0.01200
H1046       H  0.87496209  0.35061958  0.88176651     0.08800
H1047       H  0.83111908  0.29444911  0.93823690     0.07900
N1048       N  0.91454477  0.39934952  0.98724645    -0.35900
N1049       N  0.91300754  0.39918913  0.51557396    -0.28100
C1050       C  0.92786103  0.41911330  0.52742579    -0.03300
C1051       C  0.93788392  0.43325733  0.00409318     0.05300
C1052       C  0.93002116  0.41943007  0.97716390     0.03400
H1053       H  0.92955451  0.42374543  0.55302835     0.08500
H1054       H  0.93413648  0.42402488  0.95177651     0.07300
N1055       N  0.86917976  0.52403991  0.57478459    -0.27100
N1056       N  0.86021422  0.53372785  0.55809697    -0.34900
C1057       C  0.84651870  0.53660493  0.57751568     0.01300
C1058       C  0.84653961  0.52820065  0.60810407     0.07300
C1059       C  0.86132484  0.52053392  0.60566950    -0.05800
H1060       H  0.83687839  0.54393625  0.56972716     0.08000
H1061       H  0.86629989  0.51329830  0.62487401     0.09200
Cu1062     Cu  0.85845099  0.53503993  0.00753285     0.44200
Cu1063     Cu  0.89131252  0.51615584  0.55279256     0.42000
Cu1064     Cu  0.89096863  0.51905395  0.95968605     0.43900
N1065       N  0.85663768  0.53284157  0.95711340    -0.34500
N1066       N  0.86803962  0.52651581  0.93903817    -0.28700
C1067       C  0.86115054  0.52466089  0.90760008    -0.04800
C1068       C  0.84476676  0.53024990  0.90604683     0.07400
C1069       C  0.84229590  0.53514102  0.93795545     0.01200
H1070       H  0.86684290  0.51861497  0.88778194     0.08800
H1071       H  0.83035560  0.53932829  0.94681446     0.07900
N1072       N  0.91134990  0.51156694  0.98819991    -0.35900
N1073       N  0.91293067  0.51112235  0.52354514    -0.28100
C1074       C  0.92585926  0.50306384  0.53356458    -0.03300
C1075       C  0.93577275  0.50200791  0.00399714     0.05300
C1076       C  0.92706711  0.50745958  0.97740641     0.03400
H1077       H  0.92626851  0.49762787  0.55824357     0.08500
H1078       H  0.93104832  0.50728629  0.95187905     0.07300
C1079       C  0.04299089  0.54011443  0.99422370    -0.10600
C1080       C  0.05465452  0.52878761  0.99279799    -0.04500
C1081       C  0.04393872  0.50580154  0.99372829    -0.10600
C1082       C  0.02066660  0.49359316  0.99582186     0.10300
C1083       C  0.00853462  0.50483884  0.99688035    -0.02400
C1084       C  0.01973339  0.52818182  0.99606965     0.10100
C1085       C  0.00739372  0.53894485  0.99726499    -0.12400
C1086       C  0.98448142  0.52706403  0.99925707    -0.12400
C1087       C  0.97302794  0.50396381  0.00030838     0.10100
C1088       C  0.98516809  0.49272619  0.99912775    -0.02400
C1089       C  0.00919507  0.47048217  0.99679601    -0.12600
C1090       C  0.98630238  0.45861300  0.99902906    -0.12600
C1091       C  0.97399276  0.46939667  0.00035271     0.10300
C1092       C  0.95081037  0.45751792  0.00330492    -0.10600
C1093       C  0.93915621  0.46882285  0.00486777    -0.04500
C1094       C  0.94978802  0.49174848  0.00299259    -0.10600
H1095       H  0.01539814  0.55671660  0.99665368     0.07600
H1096       H  0.97579155  0.53615511  0.00020171     0.07600
H1097       H  0.01786624  0.46137058  0.99587648     0.07800
H1098       H  0.97830598  0.44085043  0.99989792     0.07800
H1099       H  0.07246866  0.53807080  0.99165180     0.04200
H1100       H  0.92138410  0.45954906  0.00696894     0.04200
O1101       O  0.46061429  0.21184484  0.79268766    -0.72700
O1102       O  0.45631488  0.25001743  0.72303540    -0.73700
O1103       O  0.45898481  0.21070649  0.72341676    -0.62300
O1104       O  0.45815173  0.25123939  0.79236798    -0.70700
O1105       O  0.49431855  0.27104458  0.79104573    -0.70300
O1106       O  0.49521767  0.23056479  0.72173866    -0.61500
O1107       O  0.49250873  0.27009135  0.72156725    -0.74100
O1108       O  0.49686277  0.23150600  0.79115623    -0.72800
Cu1109     Cu  0.45729628  0.23028978  0.75791511     1.04600
Cu1110     Cu  0.49598689  0.25149842  0.75630224     1.04300
C1111       C  0.47938910  0.21538667  0.80281409     0.93500
C1112       C  0.47362394  0.26640594  0.71162456     0.92600
C1113       C  0.47723273  0.21384514  0.71211533     0.84800
C1114       C  0.47608362  0.26780392  0.80254010     0.91000
O1115       O  0.73381003  0.51363878  0.71727695    -0.72700
O1116       O  0.77171141  0.51037204  0.78930156    -0.73700
O1117       O  0.73174963  0.51162541  0.78685196    -0.62300
O1118       O  0.77388951  0.51238555  0.71934497    -0.70700
O1119       O  0.79265866  0.54858375  0.72221939    -0.70300
O1120       O  0.75079598  0.54794387  0.78935094    -0.61500
O1121       O  0.79077407  0.54678187  0.79153613    -0.74100
O1122       O  0.75281927  0.54988462  0.71987818    -0.72800
Cu1123     Cu  0.75213805  0.51073079  0.75309500     1.04600
Cu1124     Cu  0.77240124  0.54952070  0.75582916     1.04300
C1125       C  0.73714135  0.53233553  0.70730340     0.93500
C1126       C  0.78721284  0.52810647  0.80184543     0.92600
C1127       C  0.73449203  0.52968938  0.79863870     0.84800
C1128       C  0.79007525  0.53072691  0.70994645     0.91000
O1129       O  0.55127692  0.79615336  0.77727967    -0.72700
O1130       O  0.54850181  0.75282374  0.71127613    -0.73700
O1131       O  0.55115504  0.79462803  0.70799129    -0.62300
O1132       O  0.54830254  0.75409974  0.78045210    -0.70700
O1133       O  0.51195718  0.73795208  0.77956220    -0.70300
O1134       O  0.51482433  0.77834905  0.70787147    -0.61500
O1135       O  0.51228725  0.73655784  0.71012731    -0.74100
O1136       O  0.51508577  0.77995835  0.77709532    -0.72800
Cu1137     Cu  0.55106135  0.77498490  0.74426181     1.04600
Cu1138     Cu  0.51228572  0.75763160  0.74362247     1.04300
C1139       C  0.53375578  0.79517915  0.78770545     0.93500
C1140       C  0.53000831  0.73761127  0.70030492     0.92600
C1141       C  0.53337353  0.79300503  0.69670266     0.84800
C1142       C  0.52957325  0.73955585  0.79138746     0.91000
N1143       N  0.35001142  0.48824847  0.92935343    -0.27100
N1144       N  0.33173907  0.48124978  0.94623766    -0.34900
C1145       C  0.31594524  0.48058802  0.92679002     0.01300
C1146       C  0.32456538  0.48764538  0.89604026     0.07300
C1147       C  0.34616782  0.49210951  0.89822486    -0.05800
H1148       H  0.29928577  0.47516480  0.93447063     0.08000
H1149       H  0.35810571  0.49770615  0.87874007     0.09200
Cu1150     Cu  0.32890831  0.47365860  0.99523294     0.44200
Cu1151     Cu  0.37861673  0.49178432  0.95153531     0.42000
Cu1152     Cu  0.37308526  0.48586460  0.54057059     0.43900
N1153       N  0.33151502  0.48846830  0.54278495    -0.34500
N1154       N  0.34502557  0.48472398  0.56077766    -0.28700
C1155       C  0.33726551  0.48031363  0.59172273    -0.04800
C1156       C  0.31776914  0.48089281  0.59271749     0.07400
C1157       C  0.31487445  0.48637759  0.56134743     0.01200
H1158       H  0.34517329  0.47695347  0.61197286     0.08800
H1159       H  0.30188108  0.48916640  0.55272500     0.07900
N1160       N  0.39914442  0.48803798  0.51243086    -0.35900
N1161       N  0.40381445  0.49298453  0.98096883    -0.28100
C1162       C  0.42400365  0.49810361  0.97066705    -0.03300
C1163       C  0.43630008  0.49800524  0.99729906     0.05300
C1164       C  0.41823113  0.49019929  0.52384388     0.03400
H1165       H  0.42976875  0.50282893  0.94585454     0.08500
H1166       H  0.42261269  0.49145188  0.54956166     0.07300
N1167       N  0.52616047  0.65440748  0.56456351    -0.27100
N1168       N  0.53165694  0.67208707  0.54672960    -0.34900
C1169       C  0.53529718  0.68887074  0.56640355     0.01300
C1170       C  0.53224153  0.68160513  0.59832908     0.07300
C1171       C  0.52609388  0.65954465  0.59641625    -0.05800
H1172       H  0.53889852  0.70491757  0.55791275     0.08000
H1173       H  0.52148333  0.64805446  0.61648897     0.09200
Cu1174     Cu  0.53668091  0.67637435  0.99625555     0.44200
Cu1175     Cu  0.51814508  0.62442112  0.54300792     0.42000
Cu1176     Cu  0.51915455  0.62675659  0.95036835     0.43900
N1177       N  0.53269540  0.67468588  0.94608907    -0.34500
N1178       N  0.52581966  0.65653184  0.92860027    -0.28700
C1179       C  0.52360034  0.66099860  0.89703997    -0.04800
C1180       C  0.52955785  0.68306125  0.89485866     0.07400
C1181       C  0.53499660  0.69103611  0.92649037     0.01200
H1182       H  0.51730994  0.64891044  0.87752943     0.08800
H1183       H  0.53979788  0.70748214  0.93482563     0.07900
N1184       N  0.51487140  0.60024087  0.97948101    -0.35900
N1185       N  0.51096277  0.59728356  0.51375415    -0.28100
C1186       C  0.50649004  0.57736874  0.52463685    -0.03300
C1187       C  0.50701527  0.56694319  0.99603496     0.05300
C1188       C  0.50850162  0.57965314  0.96912600     0.03400
H1189       H  0.50583042  0.57302364  0.55021186     0.08500
H1190       H  0.50417704  0.57403790  0.94404205     0.07300
N1191       N  0.47288593  0.34586142  0.57203112    -0.27100
N1192       N  0.46477105  0.32702707  0.55592570    -0.34900
C1193       C  0.46226078  0.31110465  0.57667271     0.01300
C1194       C  0.46925931  0.32029353  0.60738658     0.07300
C1195       C  0.47589604  0.34238953  0.60372379    -0.05800
H1196       H  0.45682629  0.29430296  0.56956548     0.08000
H1197       H  0.48305660  0.35506704  0.62235986     0.09200
Cu1198     Cu  0.46060080  0.32610076  0.00653987     0.44200
Cu1199     Cu  0.48037295  0.37509781  0.54819513     0.42000
Cu1200     Cu  0.48005240  0.37615010  0.96402659     0.43900
N1201       N  0.46446354  0.32818206  0.95659443    -0.34500
N1202       N  0.47251747  0.34680813  0.94020895    -0.28700
C1203       C  0.47522377  0.34286956  0.90866953    -0.04800
C1204       C  0.46813060  0.32060912  0.90534481     0.07400
C1205       C  0.46172580  0.31196656  0.93629560     0.01200
H1206       H  0.48226699  0.35528126  0.88981834     0.08800
H1207       H  0.45649950  0.29531212  0.94390712     0.07900
N1208       N  0.48563558  0.40239024  0.99465273    -0.35900
N1209       N  0.48568733  0.40131135  0.51794771    -0.28100
C1210       C  0.49139081  0.42176890  0.52797926    -0.03300
C1211       C  0.49464767  0.43593041  0.01164851     0.05300
C1212       C  0.49106996  0.42273152  0.98450212     0.03400
H1213       H  0.49437411  0.42723135  0.55325706     0.08500
H1214       H  0.49349267  0.42789371  0.95915480     0.07300
N1215       N  0.65351507  0.52423159  0.93892151    -0.27100
N1216       N  0.67039017  0.52620333  0.95622973    -0.34900
C1217       C  0.68674334  0.52952077  0.93606864     0.01300
C1218       C  0.68009395  0.52983698  0.90428246     0.07300
C1219       C  0.65876268  0.52609948  0.90682328    -0.05800
H1220       H  0.70227172  0.53125122  0.94400646     0.08000
H1221       H  0.64797460  0.52493483  0.88690192     0.09200
Cu1222     Cu  0.67080972  0.52385247  0.00634783     0.44200
Cu1223     Cu  0.62468614  0.51920441  0.96168006     0.42000
Cu1224     Cu  0.62442944  0.52070247  0.54647789     0.43900
N1225       N  0.67304941  0.53750001  0.55105190    -0.34500
N1226       N  0.65472879  0.52885036  0.56822819    -0.28700
C1227       C  0.65946450  0.52594218  0.59933713    -0.04800
C1228       C  0.68178672  0.53311202  0.60139975     0.07400
C1229       C  0.68983021  0.54039112  0.57043589     0.01200
H1230       H  0.64752680  0.51866137  0.61871712     0.08800
H1231       H  0.70650143  0.54651410  0.56224359     0.07900
N1232       N  0.59718461  0.51446749  0.51723091    -0.35900
N1233       N  0.59851320  0.51385043  0.99214617    -0.28100
C1234       C  0.57831417  0.50935777  0.98222900    -0.03300
C1235       C  0.56522677  0.50514376  0.00955727     0.05300
C1236       C  0.57679167  0.50841112  0.52783888     0.03400
H1237       H  0.57312046  0.50789565  0.95687254     0.08500
H1238       H  0.57184914  0.50558192  0.55324397     0.07300
C1239       C  0.46059478  0.50827635  0.99857325    -0.10600
C1240       C  0.47282699  0.53118106  0.99576924    -0.04500
C1241       C  0.49579615  0.54262159  0.99734565    -0.10600
C1242       C  0.50717196  0.53081735  0.00112868     0.10300
C1243       C  0.49508047  0.50749153  0.00347735    -0.02400
C1244       C  0.47169184  0.49616999  0.00249717     0.10100
C1245       C  0.46012407  0.47310264  0.00495054    -0.12400
C1246       C  0.47123902  0.46131160  0.00801962    -0.12400
C1247       C  0.49435511  0.47213055  0.00880457     0.10100
C1248       C  0.50641401  0.49546727  0.00662920    -0.02400
C1249       C  0.53027474  0.54166152  0.00221673    -0.12600
C1250       C  0.54137126  0.52987800  0.00510404    -0.12600
C1251       C  0.52979485  0.50679601  0.00717937     0.10300
C1252       C  0.54094273  0.49470366  0.00988926    -0.10600
C1253       C  0.52880564  0.47177176  0.01231600    -0.04500
C1254       C  0.50579829  0.46029794  0.01160371    -0.10600
H1255       H  0.44232509  0.46396293  0.00430453     0.07600
H1256       H  0.46154492  0.44357393  0.00974332     0.07600
H1257       H  0.53998638  0.55940012  0.00053919     0.07800
H1258       H  0.55916898  0.53903552  0.00566499     0.07800
H1259       H  0.46425564  0.54035949  0.99296407     0.04200
H1260       H  0.53745959  0.46261790  0.01403485     0.04200
C1261       C  0.54153259  0.71451587  0.81440872    -0.05600
C1262       C  0.52834333  0.72424052  0.81748517     0.00400
C1263       C  0.51482462  0.71953694  0.84545057    -0.08200
C1264       C  0.51521198  0.70535200  0.86951660    -0.05600
C1265       C  0.52836468  0.69561551  0.86641403     0.00300
C1266       C  0.54173226  0.70015702  0.83840357    -0.08100
C1267       C  0.55671842  0.69054867  0.83444578     0.62300
H1268       H  0.55171837  0.71827461  0.79288292     0.13000
H1269       H  0.50532078  0.70185518  0.89132895     0.13000
C1270       C  0.50069321  0.73005128  0.85063378     0.62500
F1271       F  0.56948623  0.69832004  0.80660828    -0.22700
F1272       F  0.54425277  0.66792639  0.83187358    -0.20000
F1273       F  0.57067545  0.69608039  0.86128597    -0.19700
F1274       F  0.48391379  0.72212476  0.82756721    -0.19700
F1275       F  0.51341595  0.75266079  0.84779049    -0.20100
F1276       F  0.49120720  0.72547656  0.88136903    -0.22700
C1277       C  0.51218242  0.68850249  0.64180089    -0.05600
C1278       C  0.53229886  0.69431925  0.62709774     0.00400
C1279       C  0.55166018  0.71320432  0.63792561    -0.08200
C1280       C  0.55001548  0.72653228  0.66204662    -0.05600
C1281       C  0.52970713  0.72158419  0.67586565     0.00300
C1282       C  0.51040026  0.70175823  0.66615953    -0.08100
C1283       C  0.48794999  0.69440061  0.68085053     0.62300
H1284       H  0.49767267  0.67383025  0.63301535     0.13000
H1285       H  0.56478512  0.74132917  0.66969515     0.13000
C1286       C  0.57403205  0.71907994  0.62434580     0.62500
F1287       F  0.47219843  0.67380319  0.66961711    -0.22700
F1288       F  0.48101202  0.70904739  0.67239461    -0.20000
F1289       F  0.48906689  0.69323943  0.71461712    -0.19700
F1290       F  0.57532305  0.72494167  0.59176504    -0.19700
F1291       F  0.57714081  0.70118136  0.62704650    -0.20100
F1292       F  0.59100057  0.73651891  0.64114193    -0.22700
C1293       C  0.71085636  0.51442102  0.66102849    -0.05600
C1294       C  0.72277312  0.53330104  0.68077672     0.00400
C1295       C  0.72036267  0.55201956  0.67467175    -0.08200
C1296       C  0.70616772  0.55091811  0.64914652    -0.05600
C1297       C  0.69459718  0.53211763  0.62959434     0.00300
C1298       C  0.69702503  0.51361393  0.63528034    -0.08100
C1299       C  0.68533315  0.49328037  0.61369956     0.62300
H1300       H  0.71278970  0.50027697  0.66542065     0.13000
H1301       H  0.70427293  0.56497900  0.64368916     0.13000
C1302       C  0.73246463  0.57312999  0.69464469     0.62500
F1303       F  0.68979025  0.47699526  0.62334351    -0.22700
F1304       F  0.69206156  0.49872545  0.58159509    -0.20000
F1305       F  0.66286258  0.48483084  0.61524752    -0.19700
F1306       F  0.75484732  0.58288836  0.68943150    -0.19700
F1307       F  0.72805338  0.56857276  0.72761538    -0.20100
F1308       F  0.72613367  0.58824068  0.68599193    -0.22700
C1309       C  0.68384707  0.51508721  0.85115872    -0.05600
C1310       C  0.69298858  0.53205301  0.87451565     0.00400
C1311       C  0.71514057  0.54903887  0.87125212    -0.08200
C1312       C  0.72796643  0.54731526  0.84647303    -0.05600
C1313       C  0.71925178  0.52982510  0.82382914     0.00300
C1314       C  0.69654325  0.51364406  0.82564093    -0.08100
C1315       C  0.68557650  0.49486572  0.80109703     0.62300
H1316       H  0.66686720  0.50230717  0.85405221     0.13000
H1317       H  0.74517377  0.55983511  0.84498388     0.13000
C1318       C  0.72599617  0.56912499  0.89350182     0.62500
F1319       F  0.66298282  0.48303311  0.80493878    -0.22700
F1320       F  0.69347717  0.48051144  0.80532394    -0.20000
F1321       F  0.68976445  0.50305626  0.76950248    -0.19700
F1322       F  0.73863462  0.56620633  0.91691559    -0.19700
F1323       F  0.71083009  0.57307227  0.90892093    -0.20100
F1324       F  0.73950437  0.58765178  0.87534291    -0.22700
C1325       C  0.45419550  0.27910669  0.83674110    -0.05600
C1326       C  0.47520047  0.28306228  0.82756454     0.00400
C1327       C  0.49409462  0.30110098  0.84256111    -0.08200
C1328       C  0.49097894  0.31359209  0.86684847    -0.05600
C1329       C  0.46999303  0.30874091  0.87670927     0.00300
C1330       C  0.45126732  0.29157769  0.86105890    -0.08100
C1331       C  0.42825224  0.28658709  0.86990822     0.62300
H1332       H  0.43978849  0.26578890  0.82507559     0.13000
H1333       H  0.50498781  0.32693340  0.87928513     0.13000
C1334       C  0.51749493  0.30725822  0.83384095     0.62500
F1335       F  0.41245142  0.27109156  0.84905759    -0.22700
F1336       F  0.42698339  0.30558641  0.86785412    -0.20000
F1337       F  0.42337468  0.27851566  0.90147959    -0.19700
F1338       F  0.52116717  0.31267838  0.80099464    -0.19700
F1339       F  0.52087140  0.28985694  0.84050051    -0.20100
F1340       F  0.53296246  0.32522167  0.85168121    -0.22700
C1341       C  0.49087333  0.29430171  0.66756666    -0.05600
C1342       C  0.47208141  0.28117121  0.68650574     0.00400
C1343       C  0.45284823  0.28283916  0.68107624    -0.08200
C1344       C  0.45292981  0.29653210  0.65569261    -0.05600
C1345       C  0.47146869  0.30885831  0.63632817     0.00300
C1346       C  0.49089361  0.30814511  0.64259507    -0.08100
C1347       C  0.51143258  0.32176694  0.62250939     0.62300
H1348       H  0.50558056  0.29333234  0.67194933     0.13000
H1349       H  0.43826755  0.29738041  0.65017643     0.13000
C1350       C  0.43228126  0.27056456  0.70175591     0.62500
F1351       F  0.52867482  0.31885710  0.63254413    -0.22700
F1352       F  0.51802790  0.34382102  0.62579090    -0.20000
F1353       F  0.50710581  0.31582329  0.58981294    -0.19700
F1354       F  0.43771160  0.27476018  0.73467460    -0.19700
F1355       F  0.42237926  0.24822165  0.69569620    -0.20100
F1356       F  0.41698665  0.27698031  0.69474818    -0.22700
C1357       C  0.80777858  0.51532878  0.88107629    -0.05600
C1358       C  0.83063402  0.52883204  0.87783289     0.00400
C1359       C  0.83914186  0.54195084  0.84945764    -0.08200
C1360       C  0.82434222  0.54104150  0.82514907    -0.05600
C1361       C  0.80150277  0.52730244  0.82815169     0.00300
C1362       C  0.79297832  0.51415923  0.85656346    -0.08100
C1363       C  0.76839895  0.49945776  0.86150518     0.62300
H1364       H  0.80160344  0.50564160  0.90314911     0.13000
H1365       H  0.83052799  0.55102843  0.80334044     0.13000
C1366       C  0.86365623  0.55728210  0.84523129     0.62500
F1367       F  0.76362902  0.49042506  0.89260293    -0.22700
F1368       F  0.76016741  0.48237961  0.83903440    -0.20000
F1369       F  0.75783203  0.51146913  0.85738485    -0.19700
F1370       F  0.87402346  0.54508827  0.84181768    -0.19700
F1371       F  0.87225556  0.57097391  0.87225892    -0.20100
F1372       F  0.86819792  0.57036374  0.81772094    -0.22700
C1373       C  0.83518301  0.54861215  0.64470138    -0.05600
C1374       C  0.83352163  0.52844830  0.63652963     0.00400
C1375       C  0.81783134  0.50913587  0.65266718    -0.08200
C1376       C  0.80432838  0.51080005  0.67659712    -0.05600
C1377       C  0.80577991  0.53100676  0.68484348     0.00300
C1378       C  0.82175324  0.55043015  0.66855467    -0.08100
C1379       C  0.82469487  0.57306707  0.67538841     0.62300
H1380       H  0.84714525  0.56308929  0.63169183     0.13000
H1381       H  0.79236586  0.49606928  0.68904806     0.13000
C1382       C  0.81480710  0.48674747  0.64402254     0.62500
F1383       F  0.84041929  0.58911474  0.65547635    -0.22700
F1384       F  0.83146433  0.57911350  0.70752886    -0.20000
F1385       F  0.80510720  0.57278571  0.66970364    -0.19700
F1386       F  0.83324447  0.48583659  0.65355488    -0.19700
F1387       F  0.81157775  0.48312445  0.61058486    -0.20100
F1388       F  0.79683839  0.46987120  0.65960442    -0.22700
C1389       C  0.16571965  0.70433959  0.68225353    -0.05600
C1390       C  0.18824578  0.71652132  0.67520217     0.00400
C1391       C  0.19569353  0.71539027  0.64356593    -0.08200
C1392       C  0.18014577  0.70226052  0.61964495    -0.05600
C1393       C  0.15754510  0.69023130  0.62637602     0.00300
C1394       C  0.15011191  0.69090952  0.65836684    -0.08100
C1395       C  0.12590334  0.67807929  0.66710175     0.62300
H1396       H  0.16047575  0.70549017  0.70672632     0.13000
H1397       H  0.18553717  0.70149967  0.59511228     0.13000
C1398       C  0.21987229  0.72871245  0.63478537     0.62500
F1399       F  0.12212948  0.68317019  0.69829582    -0.22700
F1400       F  0.11861154  0.65580886  0.66617519    -0.20000
F1401       F  0.11374401  0.68281716  0.64516730    -0.19700
F1402       F  0.23176913  0.72166264  0.65318309    -0.19700
F1403       F  0.22765068  0.75075913  0.64111040    -0.20100
F1404       F  0.22337987  0.72654225  0.60198436    -0.22700
C1405       C  0.17945970  0.69639082  0.86807865    -0.05600
C1406       C  0.15864807  0.69447635  0.86891182     0.00400
C1407       C  0.15271283  0.70497882  0.84473383    -0.08200
C1408       C  0.16796784  0.71714626  0.82012024    -0.05600
C1409       C  0.18897983  0.71922081  0.81904102     0.00300
C1410       C  0.19484776  0.70856094  0.84357459    -0.08100
C1411       C  0.21734660  0.71039624  0.84488591     0.62300
H1412       H  0.18360352  0.68834195  0.88717818     0.13000
H1413       H  0.16353501  0.72523031  0.80146415     0.13000
C1414       C  0.13050159  0.70366887  0.84554832     0.62500
F1415       F  0.22012593  0.70078749  0.87280075    -0.22700
F1416       F  0.23363687  0.73230119  0.84502880    -0.20000
F1417       F  0.21986330  0.69983313  0.81807210    -0.19700
F1418       F  0.12828142  0.71228006  0.87482945    -0.19700
F1419       F  0.11396425  0.68195881  0.84288143    -0.20100
F1420       F  0.12797405  0.71532460  0.82015472    -0.22700
C1421       C  0.31312247  0.49473831  0.64612224    -0.05600
C1422       C  0.30399343  0.47869147  0.62144975     0.00400
C1423       C  0.28173623  0.46178544  0.62367767    -0.08200
C1424       C  0.26902218  0.46215133  0.64998647    -0.05600
C1425       C  0.27774516  0.47895800  0.67377312     0.00300
C1426       C  0.30040720  0.49526167  0.67234358    -0.08100
C1427       C  0.31137308  0.51298942  0.69847186     0.62300
H1428       H  0.33022582  0.50738057  0.64402392     0.13000
H1429       H  0.25185288  0.44960514  0.65154868     0.13000
C1430       C  0.27145626  0.44338305  0.59844354     0.62500
F1431       F  0.33398920  0.52481268  0.69493554    -0.22700
F1432       F  0.30695097  0.50351263  0.72924958    -0.20000
F1433       F  0.30367372  0.52761962  0.69630308    -0.19700
F1434       F  0.28477999  0.43431001  0.59397656    -0.19700
F1435       F  0.26889710  0.45153524  0.56892887    -0.20100
F1436       F  0.25098957  0.42673391  0.60815824    -0.22700
C1437       C  0.29022100  0.50076725  0.83809988    -0.05600
C1438       C  0.28232518  0.48300753  0.81594882     0.00400
C1439       C  0.29045814  0.46811590  0.81831902    -0.08200
C1440       C  0.30528564  0.47097411  0.84390146    -0.05600
C1441       C  0.31206000  0.48797038  0.86694677     0.00300
C1442       C  0.30487802  0.50344296  0.86374290    -0.08100
C1443       C  0.31271491  0.52269695  0.88735613     0.62300
H1444       H  0.28421625  0.51222989  0.83586763     0.13000
H1445       H  0.31105773  0.45936320  0.84696135     0.13000
C1446       C  0.28378287  0.44936574  0.79407865     0.62500
F1447       F  0.30544694  0.53697337  0.87809356    -0.22700
F1448       F  0.33545382  0.53437995  0.88824914    -0.20000
F1449       F  0.30493446  0.51512951  0.91845231    -0.19700
F1450       F  0.28683921  0.45728395  0.76235513    -0.19700
F1451       F  0.26194896  0.43368002  0.79846580    -0.20100
F1452       F  0.29615833  0.43916333  0.79817558    -0.22700
C1453       C  0.18392894  0.49258614  0.86473469    -0.05600
C1454       C  0.16580266  0.47202283  0.87190418     0.00400
C1455       C  0.16223542  0.45334960  0.85384143    -0.08200
C1456       C  0.17701180  0.45594462  0.82875077    -0.05600
C1457       C  0.19549882  0.47651939  0.82143142     0.00300
C1458       C  0.19910265  0.49527636  0.84011144    -0.08100
C1459       C  0.21897584  0.51800776  0.83512272     0.62300
H1460       H  0.18630091  0.50653887  0.87922691     0.13000
H1461       H  0.17416272  0.44167603  0.81470071     0.13000
C1462       C  0.14272869  0.43079461  0.86097598     0.62500
F1463       F  0.21994800  0.53307602  0.85794406    -0.22700
F1464       F  0.21796869  0.52575862  0.80436143    -0.20000
F1465       F  0.23810176  0.51704058  0.83835165    -0.19700
F1466       F  0.12345404  0.43150276  0.85819722    -0.19700
F1467       F  0.14452920  0.42448382  0.89242019    -0.20100
F1468       F  0.14145518  0.41493834  0.83946890    -0.22700
C1469       C  0.17184110  0.45257008  0.67174900    -0.05600
C1470       C  0.19041262  0.47347616  0.67770353     0.00400
C1471       C  0.19255102  0.49180669  0.65936430    -0.08200
C1472       C  0.17668464  0.48813182  0.63504578    -0.05600
C1473       C  0.15888197  0.46717856  0.62857450     0.00300
C1474       C  0.15604060  0.44915328  0.64748171    -0.08100
C1475       C  0.13636474  0.42642874  0.64167929     0.62300
H1476       H  0.16984076  0.43869087  0.68597671     0.13000
H1477       H  0.17833551  0.50157857  0.62000835     0.13000
C1478       C  0.21149783  0.51515998  0.66441063     0.62500
F1479       F  0.13596761  0.41113108  0.66348806    -0.22700
F1480       F  0.13697088  0.41942828  0.61021401    -0.20000
F1481       F  0.11720237  0.42719961  0.64544528    -0.19700
F1482       F  0.21018777  0.52993822  0.64334760    -0.19700
F1483       F  0.23128266  0.51598741  0.65863522    -0.20100
F1484       F  0.21117959  0.52204661  0.69607569    -0.22700
C1485       C  0.46277831  0.16281163  0.65970306    -0.05600
C1486       C  0.48070905  0.17129805  0.63847431     0.00400
C1487       C  0.49802667  0.19316559  0.64258119    -0.08200
C1488       C  0.49626214  0.20634252  0.66702319    -0.05600
C1489       C  0.47781390  0.19830293  0.68758163     0.00300
C1490       C  0.46104165  0.17579093  0.68458688    -0.08100
C1491       C  0.44146618  0.16516452  0.70747266     0.62300
H1492       H  0.44973160  0.14599863  0.65588467     0.13000
H1493       H  0.50922685  0.22328156  0.66976708     0.13000
C1494       C  0.51830547  0.20239861  0.62120866     0.62500
F1495       F  0.42915206  0.14262101  0.70282256    -0.22700
F1496       F  0.42778287  0.17372122  0.70184252    -0.20000
F1497       F  0.44868984  0.16889564  0.73973503    -0.19700
F1498       F  0.51250294  0.20216192  0.58868796    -0.19700
F1499       F  0.52815852  0.18968600  0.62474742    -0.20100
F1500       F  0.53358867  0.22384483  0.62968054    -0.22700
C1501       C  0.49674129  0.19136283  0.87402428    -0.05600
C1502       C  0.47817728  0.17037914  0.87642698     0.00400
C1503       C  0.46062520  0.16382895  0.85389994    -0.08200
C1504       C  0.46203587  0.17889448  0.82993318    -0.05600
C1505       C  0.48039990  0.20026430  0.82774467     0.00300
C1506       C  0.49839655  0.20646415  0.84984189    -0.08100
C1507       C  0.51907932  0.22892647  0.84878389     0.62300
H1508       H  0.50990031  0.19590121  0.89174888     0.13000
H1509       H  0.44852493  0.17405231  0.81278804     0.13000
C1510       C  0.44023384  0.14123920  0.85593322     0.62500
F1511       F  0.53352824  0.23181688  0.87412486    -0.22700
F1512       F  0.51364419  0.24526010  0.85149864    -0.20000
F1513       F  0.52993912  0.23122576  0.81962316    -0.19700
F1514       F  0.43052859  0.13866225  0.88622588    -0.19700
F1515       F  0.44597187  0.12521547  0.85184205    -0.20100
F1516       F  0.42484565  0.13816934  0.83201993    -0.22700
C1517       C  0.29539936  0.80336744  0.81791056    -0.05600
C1518       C  0.27413281  0.80062164  0.81609466     0.00400
C1519       C  0.26795163  0.81158507  0.83938442    -0.08200
C1520       C  0.28334941  0.82483661  0.86345654    -0.05600
C1521       C  0.30439110  0.82728084  0.86547506     0.00300
C1522       C  0.31061749  0.81635790  0.84248113    -0.08100
C1523       C  0.33271658  0.81744594  0.84491528     0.62300
H1524       H  0.29993354  0.79493135  0.80011598     0.13000
H1525       H  0.27891238  0.83316281  0.88160271     0.13000
C1526       C  0.24500945  0.80873374  0.84009838     0.62500
F1527       F  0.33493880  0.80454421  0.82129748    -0.22700
F1528       F  0.33493792  0.81007334  0.87537556    -0.20000
F1529       F  0.34947320  0.83884890  0.84067219    -0.19700
F1530       F  0.22939367  0.78659769  0.84099092    -0.19700
F1531       F  0.24165687  0.81826272  0.81262828    -0.20100
F1532       F  0.24194141  0.81860000  0.86737228    -0.22700
C1533       C  0.30889828  0.81478755  0.64289876    -0.05600
C1534       C  0.30345738  0.82888413  0.62638752     0.00400
C1535       C  0.28368018  0.82850610  0.63397219    -0.08200
C1536       C  0.26975217  0.81368926  0.65788375    -0.05600
C1537       C  0.27475065  0.79898852  0.67422084     0.00300
C1538       C  0.29495003  0.79970468  0.66661710    -0.08100
C1539       C  0.30204348  0.78472310  0.68284704     0.62300
H1540       H  0.32398909  0.81522388  0.63608525     0.13000
H1541       H  0.25455346  0.81332692  0.66357766     0.13000
C1542       C  0.27746945  0.84387610  0.61690052     0.62500
F1543       F  0.32264104  0.78919413  0.67268677    -0.22700
F1544       F  0.28731623  0.76304183  0.67484598    -0.20000
F1545       F  0.30303217  0.78754413  0.71650692    -0.19700
F1546       F  0.27483929  0.83948025  0.58362481    -0.19700
F1547       F  0.29391609  0.86542146  0.62189896    -0.20100
F1548       F  0.25801005  0.84161526  0.62868007    -0.22700
C1549       C  0.54727956  0.82982169  0.62133369    -0.05600
C1550       C  0.53142521  0.83640304  0.62329979     0.00400
C1551       C  0.51644099  0.82887175  0.64973782    -0.08200
C1552       C  0.51815302  0.81520014  0.67344550    -0.05600
C1553       C  0.53387597  0.80843841  0.67128616     0.00300
C1554       C  0.54866709  0.81574869  0.64459310    -0.08100
C1555       C  0.56507939  0.80793123  0.63950484     0.62300
H1556       H  0.55840286  0.83550434  0.60073897     0.13000
H1557       H  0.50697378  0.80947482  0.69396840     0.13000
C1558       C  0.49809234  0.83427522  0.65238036     0.62500
F1559       F  0.57563695  0.81471384  0.60966637    -0.22700
F1560       F  0.58096245  0.81632335  0.66393109    -0.20000
F1561       F  0.55432764  0.78518838  0.64008371    -0.19700
F1562       F  0.48609355  0.82888175  0.62343230    -0.19700
F1563       F  0.50687576  0.85641763  0.65884436    -0.20100
F1564       F  0.48370641  0.82273886  0.67743192    -0.22700
C1565       C  0.51486817  0.81106047  0.81926838    -0.05600
C1566       C  0.53470642  0.81150493  0.81224475     0.00400
C1567       C  0.55424681  0.82697352  0.82927600    -0.08200
C1568       C  0.55261031  0.84004853  0.85405276    -0.05600
C1569       C  0.53261684  0.83880635  0.86168318     0.00300
C1570       C  0.51345194  0.82443701  0.84365613    -0.08100
C1571       C  0.49138466  0.82248546  0.85104164     0.62300
H1572       H  0.50014936  0.79977562  0.80578573     0.13000
H1573       H  0.56699345  0.85122934  0.86832439     0.13000
C1574       C  0.57677002  0.82982076  0.82213048     0.62500
F1575       F  0.47461602  0.80657362  0.83186779    -0.22700
F1576       F  0.49234091  0.84228434  0.84487643    -0.20000
F1577       F  0.48611942  0.81688430  0.88356332    -0.19700
F1578       F  0.58218236  0.83588949  0.78975859    -0.19700
F1579       F  0.57668450  0.81040342  0.82827149    -0.20100
F1580       F  0.59315629  0.84603653  0.84145026    -0.22700
C1581       C  0.79136097  0.29398350  0.66094103    -0.05600
C1582       C  0.80012780  0.28354815  0.68022368     0.00400
C1583       C  0.82218689  0.28862687  0.67485616    -0.08200
C1584       C  0.83389089  0.30256672  0.64862177    -0.05600
C1585       C  0.82444149  0.31169095  0.62821603     0.00300
C1586       C  0.80321768  0.30814364  0.63515128    -0.08100
C1587       C  0.79322892  0.31951639  0.61575776     0.62300
H1588       H  0.77477410  0.29050937  0.66561465     0.13000
H1589       H  0.85034823  0.30593021  0.64315086     0.13000
C1590       C  0.83366131  0.27992082  0.69683065     0.62500
F1591       F  0.77445469  0.31712451  0.63046954    -0.22700
F1592       F  0.78761156  0.31066972  0.58456607    -0.20000
F1593       F  0.80819275  0.34178538  0.61364974    -0.19700
F1594       F  0.82459867  0.25753772  0.69207188    -0.19700
F1595       F  0.83150977  0.28413174  0.72932769    -0.20100
F1596       F  0.85591461  0.28981417  0.69022115    -0.22700
C1597       C  0.81840375  0.27306801  0.83531702    -0.05600
C1598       C  0.80554851  0.28088623  0.82018076     0.00400
C1599       C  0.80979616  0.30245389  0.82815751    -0.08200
C1600       C  0.82541107  0.31442250  0.85285900    -0.05600
C1601       C  0.83691833  0.30576180  0.86931942     0.00300
C1602       C  0.83414642  0.28521293  0.85961124    -0.08100
C1603       C  0.84800047  0.27629665  0.87454117     0.62300
H1604       H  0.81567172  0.25696339  0.82865096     0.13000
H1605       H  0.82811873  0.33035908  0.86056750     0.13000
C1606       C  0.79817289  0.31306948  0.81102802     0.62500
F1607       F  0.84538656  0.25799849  0.85774055    -0.22700
F1608       F  0.84205351  0.27029714  0.90672548    -0.20000
F1609       F  0.87001146  0.29223739  0.87348370    -0.19700
F1610       F  0.77620852  0.30229553  0.81951016    -0.19700
F1611       F  0.80011519  0.31218144  0.77740118    -0.20100
F1612       F  0.80709838  0.33497627  0.81973985    -0.22700
C1613       C  0.72567803  0.18464134  0.83897233    -0.05600
C1614       C  0.71837388  0.19739521  0.82231816     0.00400
C1615       C  0.69730267  0.19444895  0.83021227    -0.08200
C1616       C  0.68500986  0.17962046  0.85535663    -0.05600
C1617       C  0.69286589  0.16769582  0.87272604     0.00300
C1618       C  0.71327993  0.16973148  0.86381596    -0.08100
C1619       C  0.72194291  0.15597262  0.87980608     0.62300
H1620       H  0.74156891  0.18670724  0.83284842     0.13000
H1621       H  0.66927264  0.17762178  0.86234846     0.13000
C1622       C  0.68744768  0.20651571  0.81227653     0.62500
F1623       F  0.73874620  0.15631947  0.86179396    -0.22700
F1624       F  0.70531773  0.13428973  0.88214283    -0.20000
F1625       F  0.73011723  0.16408899  0.91072601    -0.19700
F1626       F  0.68754508  0.20331679  0.77881820    -0.19700
F1627       F  0.69941736  0.22873847  0.81950081    -0.20100
F1628       F  0.66588573  0.19904536  0.82129366    -0.22700
C1629       C  0.69425300  0.19407297  0.62887787    -0.05600
C1630       C  0.68885696  0.17194907  0.62875384     0.00400
C1631       C  0.69712187  0.16410364  0.65381884    -0.08200
C1632       C  0.71023349  0.17870268  0.67879308    -0.05600
C1633       C  0.71573124  0.20091037  0.67907931     0.00300
C1634       C  0.70767752  0.20884645  0.65356691    -0.08100
C1635       C  0.71389316  0.23287988  0.65138704     0.62300
H1636       H  0.68808961  0.19976366  0.60898357     0.13000
H1637       H  0.71661540  0.17289034  0.69821763     0.13000
C1638       C  0.69297993  0.14071736  0.65330837     0.62500
F1639       F  0.70665410  0.23743792  0.62234621    -0.22700
F1640       F  0.73651990  0.24616642  0.65284006    -0.20000
F1641       F  0.70449592  0.23809179  0.67697857    -0.19700
F1642       F  0.69994407  0.13663748  0.62384790    -0.19700
F1643       F  0.67078675  0.12608057  0.65693557    -0.20100
F1644       F  0.70415766  0.13702679  0.67833460    -0.22700
loop_ 
_geom_bond_atom_site_label_1 
_geom_bond_atom_site_label_2 
_geom_bond_distance 
_geom_bond_site_symmetry_2 
_ccdc_geom_bond_type 
O1           Cu9   1.996       .  S
O1           C11   1.277       .  A
O2           Cu9   2.001       .  S
O2           C12   1.275       .  A
O3           Cu9   2.021       .  S
O3           C13   1.278       .  A
O4           Cu9   2.022       .  S
O4           C14   1.279       .  A
O5          Cu10   2.006       .  S
O5           C14   1.278       .  A
O6          Cu10   2.006       .  S
O6           C13   1.278       .  A
O7          Cu10   2.012       .  S
O7           C12   1.279       .  A
O8          Cu10   2.011       .  S
O8           C11   1.277       .  A
Cu9         Cu10   2.367       .  S
C11         C760   1.483       .  S
C12         C792   1.482       .  S
C13         C776   1.490       .  S
C14         C811   1.491       .  S
N15          N16   1.320       .  A
N15          C19   1.352       .  A
N15         Cu23   2.096       .  S
N16          C17   1.338       .  A
N16        Cu844   2.049       .  S
C17          C18   1.380       .  A
C17          H20   1.082       .  S
C18         C747   1.487       .  S
C18          C19   1.394       .  A
C19          H21   1.080       .  S
Cu22         N25   2.060   1_556  S
Cu22        N838   2.060       .  S
Cu23         N33   2.098       .  S
Cu24         N26   2.096       .  S
Cu24         N32   2.097       .  S
N25          N26   1.322       .  A
N25          C29   1.343       .  A
N26          C27   1.350       .  A
C27          C28   1.390       .  A
C27          H30   1.081       .  S
C28         C728   1.483       .  S
C28          C29   1.379       .  A
C29          H31   1.082       .  S
N32         N855   1.325   1_554  A
N32          C36   1.348       .  A
N33         N854   1.327       .  A
N33          C34   1.348       .  A
C34         C857   1.383       .  A
C34          H37   1.082       .  S
C35         C111   1.484       .  S
C35          C36   1.384   1_556  A
C35         C856   1.384       .  A
C36          H38   1.082       .  S
N39          N40   1.320       .  A
N39          C43   1.351       .  A
N39         Cu47   2.093       .  S
N40          C41   1.339       .  A
N40         Cu46   2.047       .  S
C41          C42   1.377       .  A
C41          H44   1.082       .  S
C42         C699   1.478       .  S
C42          C43   1.390       .  A
C43          H45   1.081       .  S
Cu46        N871   2.047       .  S
Cu47         N57   2.096       .  S
Cu48         N50   2.105       .  S
Cu48         N56   2.107       .  S
N49          N50   1.321       .  A
N49          C53   1.340       .  A
N49        Cu868   2.048   1_554  S
N50          C51   1.352       .  A
C51          C52   1.391       .  A
C51          H54   1.082       .  S
C52         C712   1.478       .  S
C52          C53   1.375       .  A
C53          H55   1.083       .  S
N56         N879   1.327   1_554  A
N56          C60   1.351       .  A
N57         N878   1.327       .  A
N57          C58   1.348       .  A
C58          C59   1.383       .  A
C58          H61   1.081       .  S
C59         C935   1.486       .  S
C59         C882   1.387       .  A
C60         C881   1.386   1_554  A
C60          H62   1.082       .  S
N63          N64   1.321       .  A
N63          C67   1.350       .  A
N63         Cu71   2.094       .  S
N64          C65   1.341       .  A
N64        Cu892   2.054       .  S
C65          C66   1.380       .  A
C65          H68   1.082       .  S
C66         C680   1.483       .  S
C66          C67   1.390       .  A
C67          H69   1.081       .  S
Cu70         N73   2.060       .  S
Cu70        N886   2.060   1_554  S
Cu71         N81   2.096       .  S
Cu72         N74   2.104       .  S
Cu72         N80   2.106       .  S
N73          N74   1.322       .  A
N73          C77   1.341       .  A
N74          C75   1.353       .  A
C75          C76   1.393       .  A
C75          H78   1.081       .  S
C76         C664   1.486       .  S
C76          C77   1.379       .  A
C77          H79   1.082       .  S
N80         N903   1.326   1_554  A
N80          C84   1.350       .  A
N81         N902   1.326       .  A
N81          C82   1.350       .  A
C82         C905   1.385       .  A
C82          H85   1.082       .  S
C83         C124   1.483       .  S
C83          C84   1.386   1_556  A
C83         C904   1.382       .  A
C84          H86   1.082       .  S
N87          N88   1.321       .  A
N87          C91   1.350       .  A
N87         Cu95   2.091       .  S
N88          C89   1.339       .  A
N88        Cu916   2.053       .  S
C89          C90   1.378       .  A
C89          H92   1.083       .  S
C90         C795   1.480       .  S
C90          C91   1.390       .  A
C91          H93   1.081       .  S
Cu94         N97   2.053       .  S
Cu94        N910   2.054   1_554  S
Cu95        N105   2.093       .  S
Cu96         N98   2.090       .  S
Cu96        N104   2.092       .  S
N97          N98   1.320       .  A
N97         C101   1.340       .  A
N98          C99   1.351       .  A
C99         C100   1.389       .  A
C99         H102   1.081       .  S
C100        C808   1.478       .  S
C100        C101   1.378       .  A
C101        H103   1.082       .  S
N104        N927   1.326   1_554  A
N104        C108   1.347       .  A
N105        N926   1.326       .  A
N105        C106   1.348       .  A
C106        C929   1.384       .  A
C106        H109   1.082       .  S
C107        C126   1.484       .  S
C107        C108   1.383   1_556  A
C107        C928   1.388       .  A
C108        H110   1.082       .  S
C111        C112   1.401       .  A
C111        C116   1.419       .  A
C112        C113   1.401       .  A
C112        H131   1.085       .  S
C113        C881   1.486       .  S
C113        C114   1.420       .  A
C114        C115   1.423       .  A
C114        C121   1.407       .  A
C115        C116   1.422       .  A
C115        C120   1.427   1_565  A
C116        C117   1.408       .  A
C117        C118   1.398   1_565  A
C117        H127   1.082       .  S
C118        C119   1.406       .  A
C118        H128   1.083       .  S
C119        C120   1.423       .  A
C119        C126   1.420       .  A
C120        C123   1.422       .  A
C121        C122   1.397   1_565  A
C121        H951   1.083   1_556  S
C122        C123   1.406       .  A
C122        H952   1.083   1_556  S
C123        C124   1.419       .  A
C124        C125   1.399       .  A
C125        C126   1.399       .  A
C125        H132   1.085       .  S
H129        C943   1.083       .  S
H130        C944   1.083       .  S
O133       Cu141   2.021       .  S
O133        C143   1.279       .  A
O134       Cu141   2.024       .  S
O134        C144   1.278       .  A
O135       Cu141   2.013       .  S
O135        C145   1.276       .  A
O136       Cu141   2.004       .  S
O136        C146   1.278       .  A
O137       Cu142   2.015       .  S
O137        C146   1.277       .  A
O138       Cu142   2.017       .  S
O138        C145   1.280       .  A
O139       Cu142   2.013       .  S
O139        C144   1.279       .  A
O140       Cu142   2.010       .  S
O140        C143   1.277       .  A
Cu141      Cu142   2.360       .  S
C143        C635   1.482       .  S
C144        C603   1.506       .  S
C145        C648   1.504       .  S
C146        C616   1.495       .  S
O147       Cu155   2.004       .  S
O147        C157   1.278       .  A
O148       Cu155   2.010       .  S
O148        C158   1.277       .  A
O149       Cu155   2.014       .  S
O149        C159   1.276       .  A
O150       Cu155   2.015       .  S
O150        C160   1.278       .  A
O151       Cu156   2.011       .  S
O151        C160   1.278       .  A
O152       Cu156   2.015       .  S
O152        C159   1.280       .  A
O153       Cu156   2.017       .  S
O153        C158   1.278       .  A
O154       Cu156   2.017       .  S
O154        C157   1.278       .  A
Cu155      Cu156   2.366       .  S
C157        C696   1.491       .  S
C158        C568   1.480       .  S
C159        C715   1.504       .  S
C160        C587   1.480       .  S
N161        N162   1.322       .  A
N161        C165   1.350       .  A
N161       Cu169   2.091       .  S
N162        C163   1.342       .  A
N162       Cu990   2.064   1_554  S
C163        C164   1.379       .  A
C163        H166   1.083       .  S
C164        C651   1.478       .  S
C164        C165   1.388       .  A
C165        H167   1.081       .  S
Cu168       N171   2.064       .  S
Cu168       N984   2.063       .  S
Cu169       N179   2.093       .  S
Cu170       N172   2.092       .  S
Cu170       N178   2.093       .  S
N171        N172   1.321       .  A
N171        C175   1.344       .  A
N172        C173   1.349       .  A
C173        C174   1.389       .  A
C173        H176   1.081       .  S
C174        C632   1.483       .  S
C174        C175   1.381       .  A
C175        H177   1.082       .  S
N178       N1001   1.325       .  A
N178        C182   1.347       .  A
N179       N1000   1.326   1_554  A
N179        C180   1.348       .  A
C180       C1003   1.384   1_554  A
C180        H183   1.082       .  S
C181        C259   1.484       .  S
C181        C182   1.385       .  A
C181       C1002   1.386       .  A
C182        H184   1.082       .  S
N185        N186   1.321       .  A
N185        C189   1.351       .  A
N185       Cu193   2.090       .  S
N186        C187   1.341       .  A
N186      Cu1014   2.064   1_554  S
C187        C188   1.382       .  A
C187        H190   1.082       .  S
C188        C571   1.485       .  S
C188        C189   1.391       .  A
C189        H191   1.080       .  S
Cu192       N195   2.063       .  S
Cu192      N1008   2.062       .  S
Cu193       N203   2.092       .  S
Cu194       N196   2.092       .  S
Cu194       N202   2.093       .  S
N195        N196   1.322       .  A
N195        C199   1.343       .  A
N196        C197   1.349       .  A
C197        C198   1.388       .  A
C197        H200   1.081       .  S
C198        C584   1.481       .  S
C198        C199   1.380       .  A
C199        H201   1.082       .  S
N202       N1025   1.325       .  A
N202        C206   1.348       .  A
N203       N1024   1.326   1_554  A
N203        C204   1.347       .  A
C204       C1027   1.383   1_554  A
C204        H207   1.081       .  S
C205        C257   1.478       .  S
C205        C206   1.385       .  A
C205       C1026   1.380       .  A
C206        H208   1.082       .  S
N209        N210   1.321       .  A
N209        C213   1.349       .  A
N209       Cu217   2.085       .  S
N210        C211   1.339       .  A
N210      Cu1038   2.046       .  S
C211        C212   1.376       .  A
C211        H214   1.081       .  S
C212        C763   1.471       .  S
C212        C213   1.386       .  A
C213        H215   1.082       .  S
Cu216       N219   2.052       .  S
Cu216      N1032   2.052       .  S
Cu217       N227   2.088       .  S
Cu218       N220   2.102       .  S
Cu218       N226   2.104       .  S
N219        N220   1.321       .  A
N219        C223   1.339       .  A
N220        C221   1.353       .  A
C221        C222   1.392       .  A
C221        H224   1.082       .  S
C222        C779   1.482       .  S
C222        C223   1.377       .  A
C223        H225   1.081       .  S
N226       N1049   1.326       .  A
N226        C230   1.349       .  A
N227       N1048   1.326   1_554  A
N227        C228   1.346       .  A
C228       C1051   1.383       .  A
C228        H231   1.082       .  S
C229        C270   1.480       .  S
C229        C230   1.386       .  A
C229       C1050   1.381       .  A
C230        H232   1.082       .  S
N233        N234   1.322       .  A
N233        C237   1.349       .  A
N233       Cu241   2.088       .  S
N234        C235   1.342       .  A
N234      Cu1062   2.060       .  S
C235        C236   1.378       .  A
C235        H238   1.081       .  S
C236        C552   1.476       .  S
C236        C237   1.386       .  A
C237        H239   1.082       .  S
Cu240       N243   2.057       .  S
Cu240      N1056   2.057       .  S
Cu241       N251   2.090       .  S
Cu242       N244   2.093       .  S
Cu242       N250   2.095       .  S
N243        N244   1.321       .  A
N243        C247   1.341       .  A
N244        C245   1.351       .  A
C245        C246   1.389       .  A
C245        H248   1.082       .  S
C246        C536   1.478       .  S
C246        C247   1.378       .  A
C247        H249   1.082       .  S
N250       N1073   1.327       .  A
N250        C254   1.348       .  A
N251       N1072   1.325   1_554  A
N251        C252   1.347       .  A
C252       C1075   1.384       .  A
C252        H255   1.082       .  S
C253        C272   1.484       .  S
C253        C254   1.383       .  A
C253       C1074   1.385       .  A
C254        H256   1.082       .  S
C257        C258   1.398       .  A
C257        C262   1.416       .  A
C258        C259   1.399       .  A
C258        H277   1.085       .  S
C259        C260   1.420       .  A
C260        C261   1.423       .  A
C260        C267   1.406       .  A
C261        C262   1.420       .  A
C261        C266   1.425   1_455  A
C262        C263   1.407       .  A
C263        C264   1.395   1_455  A
C263        H273   1.083       .  S
C264        C265   1.406       .  A
C264        H274   1.082       .  S
C265        C266   1.423       .  A
C265        C272   1.419       .  A
C266        C269   1.420       .  A
C267        C268   1.397   1_455  A
C267        H275   1.083       .  S
C268        C269   1.407       .  A
C268        H276   1.083       .  S
C269        C270   1.417       .  A
C270        C271   1.401       .  A
C271        C272   1.399       .  A
C271        H278   1.085       .  S
O279       Cu287   2.014       .  S
O279        C289   1.278       .  A
O280       Cu287   2.018       .  S
O280        C290   1.277       .  A
O281       Cu287   2.015       .  S
O281        C291   1.277       .  A
O282       Cu287   2.009       .  S
O282        C292   1.279       .  A
O283       Cu288   2.018       .  S
O283        C292   1.277       .  A
O284       Cu288   2.023       .  S
O284        C291   1.281       .  A
O285       Cu288   2.014       .  S
O285        C290   1.279       .  A
O286       Cu288   2.010       .  S
O286        C289   1.277       .  A
Cu287      Cu288   2.362       .  S
C289        C683   1.484       .  S
C290        C520   1.489       .  S
C291        C667   1.501       .  S
C292        C504   1.502       .  S
O293       Cu301   2.003       .  S
O293        C303   1.277       .  A
O294       Cu301   2.003       .  S
O294        C304   1.275       .  A
O295       Cu301   2.013       .  S
O295        C305   1.276       .  A
O296       Cu301   2.010       .  S
O296        C306   1.279       .  A
O297       Cu302   2.014       .  S
O297        C306   1.277       .  A
O298       Cu302   2.015       .  S
O298        C305   1.280       .  A
O299       Cu302   2.024       .  S
O299        C304   1.280       .  A
O300       Cu302   2.017       .  S
O300        C303   1.278       .  A
Cu301      Cu302   2.361       .  S
C303        C472   1.486       .  S
C304        C539   1.493       .  S
C305        C491   1.503       .  S
C306        C555   1.497       .  S
O307       Cu315   2.007       .  S
O307        C317   1.276       .  A
O308       Cu315   2.006       .  S
O308        C318   1.277       .  A
O309       Cu315   2.018       .  S
O309        C319   1.277       .  A
O310       Cu315   2.019       .  S
O310        C320   1.279       .  A
O311       Cu316   2.013       .  S
O311        C320   1.277       .  A
O312       Cu316   2.009       .  S
O312        C319   1.279       .  A
O313       Cu316   2.017       .  S
O313        C318   1.278       .  A
O314       Cu316   2.014       .  S
O314        C317   1.279       .  A
Cu315      Cu316   2.365       .  S
C317        C744   1.492       .  S
C318        C459   1.484       .  S
C319        C731   1.503       .  S
C320        C440   1.482       .  S
N321        N322   1.321       .  A
N321        C325   1.350       .  A
N321       Cu329   2.091       .  S
N322        C323   1.341       .  A
N322       Cu328   2.057       .  S
C323        C324   1.379       .  A
C323        H326   1.083       .  S
C324        C619   1.478       .  S
C324        C325   1.389       .  A
C325        H327   1.081       .  S
Cu328      N1153   2.058       .  S
Cu329       N339   2.093       .  S
Cu330       N332   2.100       .  S
Cu330       N338   2.102       .  S
N331        N332   1.321       .  A
N331        C335   1.341       .  A
N331      Cu1150   2.053   1_554  S
N332        C333   1.352       .  A
C333        C334   1.390       .  A
C333        H336   1.082       .  S
C334        C600   1.479       .  S
C334        C335   1.377       .  A
C335        H337   1.082       .  S
N338       N1161   1.326   1_554  A
N338        C342   1.350       .  A
N339       N1160   1.325       .  A
N339        C340   1.347       .  A
C340        C341   1.385       .  A
C340        H343   1.082       .  S
C341        C417   1.485       .  S
C341       C1164   1.389       .  A
C342       C1163   1.386   1_554  A
C342        H344   1.082       .  S
N345        N346   1.320       .  A
N345        C349   1.349       .  A
N345       Cu353   2.085       .  S
N346        C347   1.341       .  A
N346      Cu1174   2.058   1_554  S
C347        C348   1.380       .  A
C347        H350   1.082       .  S
C348        C456   1.481       .  S
C348        C349   1.389       .  A
C349        H351   1.080       .  S
Cu352       N355   2.053       .  S
Cu352      N1168   2.052       .  S
Cu353       N363   2.087       .  S
Cu354       N356   2.096       .  S
Cu354       N362   2.097       .  S
N355        N356   1.320       .  A
N355        C359   1.340       .  A
N356        C357   1.351       .  A
C357        C358   1.393       .  A
C357        H360   1.080       .  S
C358        C443   1.488       .  S
C358        C359   1.381       .  A
C359        H361   1.083       .  S
N362       N1185   1.326       .  A
N362        C366   1.347       .  A
N363       N1184   1.326   1_554  A
N363        C364   1.347       .  A
C364       C1187   1.382   1_554  A
C364        H367   1.082       .  S
C365        C419   1.478       .  S
C365        C366   1.384       .  A
C365       C1186   1.381       .  A
C366        H368   1.082       .  S
N369        N370   1.322       .  A
N369        C373   1.353       .  A
N369       Cu377   2.105       .  S
N370        C371   1.341       .  A
N370      Cu1198   2.053       .  S
C371        C372   1.377       .  A
C371        H374   1.081       .  S
C372        C523   1.482       .  S
C372        C373   1.391       .  A
C373        H375   1.082       .  S
Cu376       N379   2.062       .  S
Cu376      N1192   2.062       .  S
Cu377       N387   2.107       .  S
Cu378       N380   2.093       .  S
Cu378       N386   2.094       .  S
N379        N380   1.322       .  A
N379        C383   1.342       .  A
N380        C381   1.350       .  A
C381        C382   1.389       .  A
C381        H384   1.082       .  S
C382        C507   1.481       .  S
C382        C383   1.380       .  A
C383        H385   1.082       .  S
N386       N1209   1.325       .  A
N386        C390   1.349       .  A
N387       N1208   1.326   1_554  A
N387        C388   1.350       .  A
C388       C1211   1.387       .  A
C388        H391   1.082       .  S
C389        C432   1.480       .  S
C389        C390   1.385       .  A
C389       C1210   1.382       .  A
C390        H392   1.082       .  S
N393        N394   1.321       .  A
N393        C397   1.351       .  A
N393       Cu401   2.095       .  S
N394        C395   1.341       .  A
N394       Cu400   2.056       .  S
C395        C396   1.378       .  A
C395        H398   1.083       .  S
C396        C488   1.480       .  S
C396        C397   1.390       .  A
C397        H399   1.081       .  S
Cu400      N1225   2.057       .  S
Cu401       N411   2.097       .  S
Cu402       N404   2.089       .  S
Cu402       N410   2.091       .  S
N403        N404   1.321       .  A
N403        C407   1.341       .  A
N403      Cu1222   2.052       .  S
N404        C405   1.350       .  A
C405        C406   1.388       .  A
C405        H408   1.082       .  S
C406        C475   1.477       .  S
C406        C407   1.379       .  A
C407        H409   1.082       .  S
N410       N1233   1.326   1_554  A
N410        C414   1.347       .  A
N411       N1232   1.326       .  A
N411        C412   1.349       .  A
C412        C413   1.384       .  A
C412        H415   1.082       .  S
C413        C430   1.484       .  S
C413       C1236   1.385       .  A
C414       C1235   1.383       .  A
C414        H416   1.082       .  S
C417        C418   1.398       .  A
C417        C422   1.421       .  A
C418        C419   1.397       .  A
C418        H437   1.086       .  S
C419        C420   1.416       .  A
C420        C421   1.421       .  A
C420        C427   1.407       .  A
C421        C422   1.424       .  A
C421        C426   1.426       .  A
C422        C423   1.406       .  A
C423        C424   1.399       .  A
C423        H433   1.083       .  S
C424        C425   1.408       .  A
C424        H434   1.083       .  S
C425        C426   1.421       .  A
C425        C432   1.419       .  A
C426        C429   1.424       .  A
C427        C428   1.396       .  A
C427        H435   1.083       .  S
C428        C429   1.406       .  A
C428        H436   1.083       .  S
C429        C430   1.419       .  A
C430        C431   1.398       .  A
C431        C432   1.399       .  A
C431        H438   1.085       .  S
C439        C440   1.404       .  A
C439        C444   1.411       .  A
C439        H446   1.083       .  S
C440        C441   1.416       .  A
C441        C442   1.408       .  A
C441        C448   1.519       .  S
C442        C443   1.406       .  A
C442        H447   1.083       .  S
C443        C444   1.419       .  A
C444        C445   1.518       .  S
C445        F449   1.384       .  S
C445        F450   1.381       .  S
C445        F451   1.383       .  S
C448        F452   1.382       .  S
C448        F453   1.382       .  S
C448        F454   1.385       .  S
C455        C456   1.403       .  A
C455        C460   1.407       .  A
C455        H462   1.083       .  S
C456        C457   1.415       .  A
C457        C458   1.409       .  A
C457        C464   1.518       .  S
C458        C459   1.406       .  A
C458        H463   1.083       .  S
C459        C460   1.419       .  A
C460        C461   1.520       .  S
C461        F465   1.385       .  S
C461        F466   1.384       .  S
C461        F467   1.382       .  S
C464        F468   1.383       .  S
C464        F469   1.381       .  S
C464        F470   1.385       .  S
C471        C472   1.404       .  A
C471        C476   1.403       .  A
C471        H478   1.085       .  S
C472        C473   1.422       .  A
C473        C474   1.411       .  A
C473        C480   1.519       .  S
C474        C475   1.402       .  A
C474        H479   1.083       .  S
C475        C476   1.417       .  A
C476        C477   1.520       .  S
C477        F481   1.384       .  S
C477        F482   1.383       .  S
C477        F483   1.382       .  S
C480        F484   1.383       .  S
C480        F485   1.384       .  S
C480        F486   1.385       .  S
C487        C488   1.399       .  A
C487        C492   1.411       .  A
C487        H494   1.083       .  S
C488        C489   1.412       .  A
C489        C490   1.407       .  A
C489        C496   1.519       .  S
C490        C491   1.411       .  A
C490        H495   1.082       .  S
C491        C492   1.430       .  A
C492        C493   1.521       .  S
C493        F497   1.385       .  S
C493        F498   1.383       .  S
C493        F499   1.384       .  S
C496        F500   1.381       .  S
C496        F501   1.384       .  S
C496        F502   1.385       .  S
C503        C504   1.411       .  A
C503        C508   1.406       .  A
C503        H510   1.082       .  S
C504        C505   1.429       .  A
C505        C506   1.412       .  A
C505        C512   1.520       .  S
C506        C507   1.400       .  A
C506        H511   1.083       .  S
C507        C508   1.413       .  A
C508        C509   1.520       .  S
C509        F513   1.385       .  S
C509        F514   1.383       .  S
C509        F515   1.381       .  S
C512        F516   1.383       .  S
C512        F517   1.383       .  S
C512        F518   1.385       .  S
C519        C520   1.404       .  A
C519        C524   1.407       .  A
C519        H526   1.083       .  S
C520        C521   1.423       .  A
C521        C522   1.412       .  A
C521        C528   1.519       .  S
C522        C523   1.401       .  A
C522        H527   1.083       .  S
C523        C524   1.417       .  A
C524        C525   1.519       .  S
C525        F529   1.385       .  S
C525        F530   1.383       .  S
C525        F531   1.382       .  S
C528        F532   1.384       .  S
C528        F533   1.382       .  S
C528        F534   1.385       .  S
C535        C536   1.400       .  A
C535        C540   1.408       .  A
C535        H542   1.083       .  S
C536        C537   1.411       .  A
C537        C538   1.410       .  A
C537        C544   1.516       .  S
C538        C539   1.410       .  A
C538        H543   1.083       .  S
C539        C540   1.425       .  A
C540        C541   1.521       .  S
C541        F545   1.385       .  S
C541        F546   1.383       .  S
C541        F547   1.384       .  S
C544        F548   1.383       .  S
C544        F549   1.383       .  S
C544        F550   1.384       .  S
C551        C552   1.399       .  A
C551        C556   1.410       .  A
C551        H558   1.083       .  S
C552        C553   1.411       .  A
C553        C554   1.406       .  A
C553        C560   1.518       .  S
C554        C555   1.410       .  A
C554        H559   1.082       .  S
C555        C556   1.427       .  A
C556        C557   1.521       .  S
C557        F561   1.385       .  S
C557        F562   1.384       .  S
C557        F563   1.383       .  S
C560        F564   1.383       .  S
C560        F565   1.383       .  S
C560        F566   1.385       .  S
C567        C568   1.404       .  A
C567        C572   1.411       .  A
C567        H574   1.083       .  S
C568        C569   1.416       .  A
C569        C570   1.406       .  A
C569        C576   1.520       .  S
C570        C571   1.404       .  A
C570        H575   1.083       .  S
C571        C572   1.418       .  A
C572        C573   1.518       .  S
C573        F577   1.385       .  S
C573        F578   1.381       .  S
C573        F579   1.383       .  S
C576        F580   1.382       .  S
C576        F581   1.383       .  S
C576        F582   1.385       .  S
C583        C584   1.403       .  A
C583        C588   1.408       .  A
C583        H590   1.083       .  S
C584        C585   1.415       .  A
C585        C586   1.409       .  A
C585        C592   1.518       .  S
C586        C587   1.404       .  A
C586        H591   1.083       .  S
C587        C588   1.418       .  A
C588        C589   1.519       .  S
C589        F593   1.385       .  S
C589        F594   1.383       .  S
C589        F595   1.382       .  S
C592        F596   1.383       .  S
C592        F597   1.381       .  S
C592        F598   1.385       .  S
C599        C600   1.399       .  A
C599        C604   1.413       .  A
C599        H606   1.083       .  S
C600        C601   1.410       .  A
C601        C602   1.407       .  A
C601        C608   1.518       .  S
C602        C603   1.413       .  A
C602        H607   1.081       .  S
C603        C604   1.430       .  A
C604        C605   1.520       .  S
C605        F609   1.385       .  S
C605        F610   1.383       .  S
C605        F611   1.383       .  S
C608        F612   1.383       .  S
C608        F613   1.382       .  S
C608        F614   1.385       .  S
C615        C616   1.409       .  A
C615        C620   1.405       .  A
C615        H622   1.083       .  S
C616        C617   1.426       .  A
C617        C618   1.410       .  A
C617        C624   1.520       .  S
C618        C619   1.400       .  A
C618        H623   1.084       .  S
C619        C620   1.413       .  A
C620        C621   1.519       .  S
C621        F625   1.385       .  S
C621        F626   1.383       .  S
C621        F627   1.381       .  S
C624        F628   1.384       .  S
C624        F629   1.383       .  S
C624        F630   1.385       .  S
C631        C632   1.404       .  A
C631        C636   1.410       .  A
C631        H638   1.083       .  S
C632        C633   1.416       .  A
C633        C634   1.409       .  A
C633        C640   1.518       .  S
C634        C635   1.404       .  A
C634        H639   1.083       .  S
C635        C636   1.417       .  A
C636        C637   1.519       .  S
C637        F641   1.384       .  S
C637        F642   1.382       .  S
C637        F643   1.384       .  S
C640        F644   1.381       .  S
C640        F645   1.384       .  S
C640        F646   1.384       .  S
C647        C648   1.412       .  A
C647        C652   1.407       .  A
C647        H654   1.082       .  S
C648        C649   1.431       .  A
C649        C650   1.411       .  A
C649        C656   1.521       .  S
C650        C651   1.398       .  A
C650        H655   1.083       .  S
C651        C652   1.410       .  A
C652        C653   1.518       .  S
C653        F657   1.385       .  S
C653        F658   1.382       .  S
C653        F659   1.383       .  S
C656        F660   1.385       .  S
C656        F661   1.383       .  S
C656        F662   1.383       .  S
C663        C664   1.402       .  A
C663        C668   1.411       .  A
C663        H670   1.083       .  S
C664        C665   1.414       .  A
C665        C666   1.411       .  A
C665        C672   1.518       .  S
C666        C667   1.411       .  A
C666        H671   1.082       .  S
C667        C668   1.427       .  A
C668        C669   1.521       .  S
C669        F673   1.385       .  S
C669        F674   1.383       .  S
C669        F675   1.383       .  S
C672        F676   1.383       .  S
C672        F677   1.382       .  S
C672        F678   1.385       .  S
C679        C680   1.404       .  A
C679        C684   1.408       .  A
C679        H686   1.083       .  S
C680        C681   1.415       .  A
C681        C682   1.409       .  A
C681        C688   1.517       .  S
C682        C683   1.405       .  A
C682        H687   1.084       .  S
C683        C684   1.419       .  A
C684        C685   1.521       .  S
C685        F689   1.385       .  S
C685        F690   1.384       .  S
C685        F691   1.382       .  S
C688        F692   1.384       .  S
C688        F693   1.381       .  S
C688        F694   1.384       .  S
C695        C696   1.409       .  A
C695        C700   1.407       .  A
C695        H702   1.082       .  S
C696        C697   1.423       .  A
C697        C698   1.409       .  A
C697        C704   1.521       .  S
C698        C699   1.402       .  A
C698        H703   1.083       .  S
C699        C700   1.412       .  A
C700        C701   1.518       .  S
C701        F705   1.385       .  S
C701        F706   1.384       .  S
C701        F707   1.382       .  S
C704        F708   1.383       .  S
C704        F709   1.383       .  S
C704        F710   1.385       .  S
C711        C712   1.398       .  A
C711        C716   1.411       .  A
C711        H718   1.083       .  S
C712        C713   1.411       .  A
C713        C714   1.407       .  A
C713        C720   1.518       .  S
C714        C715   1.412       .  A
C714        H719   1.082       .  S
C715        C716   1.430       .  A
C716        C717   1.521       .  S
C717        F721   1.385       .  S
C717        F722   1.384       .  S
C717        F723   1.383       .  S
C720        F724   1.383       .  S
C720        F725   1.383       .  S
C720        F726   1.385       .  S
C727        C728   1.401       .  A
C727        C732   1.412       .  A
C727        H734   1.083       .  S
C728        C729   1.413       .  A
C729        C730   1.407       .  A
C729        C736   1.519       .  S
C730        C731   1.411       .  A
C730        H735   1.082       .  S
C731        C732   1.428       .  A
C732        C733   1.521       .  S
C733        F737   1.385       .  S
C733        F738   1.383       .  S
C733        F739   1.383       .  S
C736        F740   1.383       .  S
C736        F741   1.381       .  S
C736        F742   1.385       .  S
C743        C744   1.408       .  A
C743        C748   1.410       .  A
C743        H750   1.083       .  S
C744        C745   1.422       .  A
C745        C746   1.407       .  A
C745        C752   1.522       .  S
C746        C747   1.404       .  A
C746        H751   1.083       .  S
C747        C748   1.417       .  A
C748        C749   1.518       .  S
C749        F753   1.385       .  S
C749        F754   1.381       .  S
C749        F755   1.383       .  S
C752        F756   1.383       .  S
C752        F757   1.383       .  S
C752        F758   1.385       .  S
C759        C760   1.405       .  A
C759        C764   1.403       .  A
C759        H766   1.083       .  S
C760        C761   1.422       .  A
C761        C762   1.409       .  A
C761        C768   1.520       .  S
C762        C763   1.400       .  A
C762        H767   1.083       .  S
C763        C764   1.413       .  A
C764        C765   1.519       .  S
C765        F769   1.385       .  S
C765        F770   1.382       .  S
C765        F771   1.383       .  S
C768        F772   1.382       .  S
C768        F773   1.384       .  S
C768        F774   1.385       .  S
C775        C776   1.405       .  A
C775        C780   1.404       .  A
C775        H782   1.083       .  S
C776        C777   1.423       .  A
C777        C778   1.412       .  A
C777        C784   1.519       .  S
C778        C779   1.402       .  A
C778        H783   1.083       .  S
C779        C780   1.417       .  A
C780        C781   1.519       .  S
C781        F785   1.385       .  S
C781        F786   1.381       .  S
C781        F787   1.384       .  S
C784        F788   1.382       .  S
C784        F789   1.384       .  S
C784        F790   1.385       .  S
C791        C792   1.405       .  A
C791        C796   1.408       .  A
C791        H798   1.083       .  S
C792        C793   1.419       .  A
C793        C794   1.406       .  A
C793        C800   1.521       .  S
C794        C795   1.404       .  A
C794        H799   1.083       .  S
C795        C796   1.415       .  A
C796        C797   1.517       .  S
C797        F801   1.385       .  S
C797        F802   1.381       .  S
C797        F803   1.383       .  S
C800        F804   1.383       .  S
C800        F805   1.384       .  S
C800        F806   1.385       .  S
C807        C808   1.401       .  A
C807        C812   1.409       .  A
C807        H814   1.083       .  S
C808        C809   1.411       .  A
C809        C810   1.408       .  A
C809        C816   1.517       .  S
C810        C811   1.410       .  A
C810        H815   1.083       .  S
C811        C812   1.422       .  A
C812        C813   1.519       .  S
C813        F817   1.385       .  S
C813        F818   1.383       .  S
C813        F819   1.383       .  S
C816        F820   1.383       .  S
C816        F821   1.383       .  S
C816        F822   1.385       .  S
O823       Cu831   2.007       .  S
O823        C833   1.278       .  A
O824       Cu831   2.013       .  S
O824        C834   1.276       .  A
O825       Cu831   2.013       .  S
O825        C835   1.277       .  A
O826       Cu831   2.019       .  S
O826        C836   1.278       .  A
O827       Cu832   2.004       .  S
O827        C836   1.278       .  A
O828       Cu832   2.003       .  S
O828        C835   1.278       .  A
O829       Cu832   2.022       .  S
O829        C834   1.281       .  A
O830       Cu832   2.015       .  S
O830        C833   1.277       .  A
Cu831      Cu832   2.362       .  S
C833       C1582   1.490       .  S
C834       C1614   1.500       .  S
C835       C1598   1.494       .  S
C836       C1633   1.487       .  S
N837        N838   1.322       .  A
N837        C841   1.349       .  A
N837       Cu845   2.089       .  S
N838        C839   1.342       .  A
C839        C840   1.380       .  A
C839        H842   1.082       .  S
C840       C1569   1.480       .  S
C840        C841   1.388       .  A
C841        H843   1.081       .  S
Cu844       N847   2.049       .  S
Cu845       N855   2.090       .  S
Cu846       N848   2.092       .  S
Cu846       N854   2.095       .  S
N847        N848   1.319       .  A
N847        C851   1.339       .  A
N848        C849   1.350       .  A
C849        C850   1.393       .  A
C849        H852   1.079       .  S
C850       C1550   1.487       .  S
C850        C851   1.381       .  A
C851        H853   1.082       .  S
N854        C858   1.348       .  A
N855        C856   1.349       .  A
C856        H859   1.082       .  S
C857        C933   1.482       .  S
C857        C858   1.383       .  A
C858        H860   1.082       .  S
N861        N862   1.320       .  A
N861        C865   1.351       .  A
N861       Cu869   2.093       .  S
N862        C863   1.339       .  A
N862       Cu868   2.048       .  S
C863        C864   1.379       .  A
C863        H866   1.082       .  S
C864       C1521   1.482       .  S
C864        C865   1.391       .  A
C865        H867   1.081       .  S
Cu869       N879   2.096       .  S
Cu870       N872   2.110       .  S
Cu870       N878   2.112       .  S
N871        N872   1.321       .  A
N871        C875   1.340       .  A
N872        C873   1.354       .  A
C873        C874   1.393       .  A
C873        H876   1.082       .  S
C874       C1534   1.481       .  S
C874        C875   1.375       .  A
C875        H877   1.083       .  S
N878        C882   1.350       .  A
N879        C880   1.348       .  A
C880        C881   1.383       .  A
C880        H883   1.082       .  S
C882        H884   1.082       .  S
N885        N886   1.321       .  A
N885        C889   1.350       .  A
N885       Cu893   2.089       .  S
N886        C887   1.342       .  A
C887        C888   1.379       .  A
C887        H890   1.082       .  S
C888       C1502   1.479       .  S
C888        C889   1.388       .  A
C889        H891   1.082       .  S
Cu892       N895   2.054       .  S
Cu893       N903   2.091       .  S
Cu894       N896   2.099       .  S
Cu894       N902   2.100       .  S
N895        N896   1.321       .  A
N895        C899   1.341       .  A
N896        C897   1.352       .  A
C897        C898   1.389       .  A
C897        H900   1.082       .  S
C898       C1486   1.478       .  S
C898        C899   1.377       .  A
C899        H901   1.081       .  S
N902        C906   1.347       .  A
N903        C904   1.347       .  A
C904        H907   1.082       .  S
C905        C946   1.484       .  S
C905        C906   1.385       .  A
C906        H908   1.082       .  S
N909        N910   1.321       .  A
N909        C913   1.352       .  A
N909       Cu917   2.107       .  S
N910        C911   1.341       .  A
C911        C912   1.380       .  A
C911        H914   1.081       .  S
C912       C1617   1.488       .  S
C912        C913   1.393       .  A
C913        H915   1.082       .  S
Cu916       N919   2.053       .  S
Cu917       N927   2.109       .  S
Cu918       N920   2.092       .  S
Cu918       N926   2.094       .  S
N919        N920   1.321       .  A
N919        C923   1.341       .  A
N920        C921   1.350       .  A
C921        C922   1.389       .  A
C921        H924   1.081       .  S
C922       C1630   1.479       .  S
C922        C923   1.378       .  A
C923        H925   1.082       .  S
N926        C930   1.347       .  A
N927        C928   1.350       .  A
C928        H931   1.082       .  S
C929        C948   1.481       .  S
C929        C930   1.383       .  A
C930        H932   1.082       .  S
C933        C934   1.400       .  A
C933        C938   1.417       .  A
C934        C935   1.401       .  A
C934        H953   1.085       .  S
C935        C936   1.420       .  A
C936        C937   1.423       .  A
C936        C943   1.407       .  A
C937        C938   1.422       .  A
C937        C942   1.426   1_565  A
C938        C939   1.407       .  A
C939        C940   1.395   1_565  A
C939        H949   1.083       .  S
C940        C941   1.406       .  A
C940        H950   1.083       .  S
C941        C942   1.422       .  A
C941        C948   1.417       .  A
C942        C945   1.422       .  A
C943        C944   1.399   1_565  A
C944        C945   1.407       .  A
C945        C946   1.420       .  A
C946        C947   1.400       .  A
C947        C948   1.399       .  A
C947        H954   1.085       .  S
O955       Cu963   2.016       .  S
O955        C965   1.277       .  A
O956       Cu963   2.018       .  S
O956        C966   1.278       .  A
O957       Cu963   2.009       .  S
O957        C967   1.275       .  A
O958       Cu963   2.009       .  S
O958        C968   1.278       .  A
O959       Cu964   2.020       .  S
O959        C968   1.278       .  A
O960       Cu964   2.025       .  S
O960        C967   1.281       .  A
O961       Cu964   2.021       .  S
O961        C966   1.279       .  A
O962       Cu964   2.022       .  S
O962        C965   1.280       .  A
Cu963      Cu964   2.360       .  S
C965       C1457   1.504       .  S
C966       C1425   1.492       .  S
C967       C1470   1.504       .  S
C968       C1438   1.491       .  S
O969       Cu977   2.015       .  S
O969        C979   1.279       .  A
O970       Cu977   2.013       .  S
O970        C980   1.277       .  A
O971       Cu977   2.015       .  S
O971        C981   1.277       .  A
O972       Cu977   2.016       .  S
O972        C982   1.277       .  A
O973       Cu978   2.021       .  S
O973        C982   1.280       .  A
O974       Cu978   2.025       .  S
O974        C981   1.281       .  A
O975       Cu978   2.008       .  S
O975        C980   1.277       .  A
O976       Cu978   2.003       .  S
O976        C979   1.276       .  A
Cu977      Cu978   2.364       .  S
C979       C1518   1.490       .  S
C980       C1390   1.475       .  S
C981       C1537   1.505       .  S
C982       C1409   1.497       .  S
N983        N984   1.322       .  A
N983        C987   1.351       .  A
N983       Cu991   2.095       .  S
N984        C985   1.342       .  A
C985        C986   1.378       .  A
C985        H988   1.083       .  S
C986       C1473   1.478       .  S
C986        C987   1.388       .  A
C987        H989   1.081       .  S
Cu990       N993   2.065       .  S
Cu991      N1001   2.096       .  S
Cu992       N994   2.100       .  S
Cu992      N1000   2.101       .  S
N993        N994   1.322       .  A
N993        C997   1.344       .  A
N994        C995   1.351       .  A
C995        C996   1.389       .  A
C995        H998   1.082       .  S
C996       C1454   1.482       .  S
C996        C997   1.380       .  A
C997        H999   1.082       .  S
N1000      C1004   1.349       .  A
N1001      C1002   1.349       .  A
C1002      H1005   1.082       .  S
C1003      C1081   1.484       .  S
C1003      C1004   1.386       .  A
C1004      H1006   1.082       .  S
N1007      N1008   1.320       .  A
N1007      C1011   1.348       .  A
N1007     Cu1015   2.076       .  S
N1008      C1009   1.341       .  A
C1009      C1010   1.383       .  A
C1009      H1012   1.082       .  S
C1010      C1393   1.484       .  S
C1010      C1011   1.389       .  A
C1011      H1013   1.080       .  S
Cu1014     N1017   2.064       .  S
Cu1015     N1025   2.077       .  S
Cu1016     N1018   2.093       .  S
Cu1016     N1024   2.094       .  S
N1017      N1018   1.322       .  A
N1017      C1021   1.343       .  A
N1018      C1019   1.350       .  A
C1019      C1020   1.388       .  A
C1019      H1022   1.082       .  S
C1020      C1406   1.480       .  S
C1020      C1021   1.380       .  A
C1021      H1023   1.082       .  S
N1024      C1028   1.348       .  A
N1025      C1026   1.345       .  A
C1026      H1029   1.082       .  S
C1027      C1079   1.480       .  S
C1027      C1028   1.383       .  A
C1028      H1030   1.082       .  S
N1031      N1032   1.320       .  A
N1031      C1035   1.349       .  A
N1031     Cu1039   2.082       .  S
N1032      C1033   1.341       .  A
C1033      C1034   1.379       .  A
C1033      H1036   1.081       .  S
C1034      C1585   1.477       .  S
C1034      C1035   1.387       .  A
C1035      H1037   1.082       .  S
Cu1038     N1041   2.046   1_554  S
Cu1039     N1049   2.084       .  S
Cu1040     N1042   2.084       .  S
Cu1040     N1048   2.086       .  S
N1041      N1042   1.320       .  A
N1041      C1045   1.339       .  A
N1042      C1043   1.349       .  A
C1043      C1044   1.388       .  A
C1043      H1046   1.082       .  S
C1044      C1601   1.475       .  S
C1044      C1045   1.377       .  A
C1045      H1047   1.081       .  S
N1048      C1052   1.346       .  A
N1049      C1050   1.346       .  A
C1050      H1053   1.082       .  S
C1051      C1092   1.477       .  S
C1051      C1052   1.382   1_554  A
C1052      H1054   1.082       .  S
N1055      N1056   1.321       .  A
N1055      C1059   1.351       .  A
N1055     Cu1063   2.100       .  S
N1056      C1057   1.341       .  A
C1057      C1058   1.380       .  A
C1057      H1060   1.082       .  S
C1058      C1374   1.487       .  S
C1058      C1059   1.392       .  A
C1059      H1061   1.080       .  S
Cu1062     N1065   2.061   1_554  S
Cu1063     N1073   2.102       .  S
Cu1064     N1066   2.098       .  S
Cu1064     N1072   2.099       .  S
N1065      N1066   1.322       .  A
N1065      C1069   1.342       .  A
N1066      C1067   1.350       .  A
C1067      C1068   1.390       .  A
C1067      H1070   1.081       .  S
C1068      C1358   1.484       .  S
C1068      C1069   1.380       .  A
C1069      H1071   1.082       .  S
N1072      C1076   1.350       .  A
N1073      C1074   1.349       .  A
C1074      H1077   1.082       .  S
C1075      C1094   1.483       .  S
C1075      C1076   1.386   1_554  A
C1076      H1078   1.082       .  S
C1079      C1080   1.400       .  A
C1079      C1084   1.417       .  A
C1080      C1081   1.399       .  A
C1080      H1099   1.085       .  S
C1081      C1082   1.419       .  A
C1082      C1083   1.423       .  A
C1082      C1089   1.406       .  A
C1083      C1084   1.420       .  A
C1083      C1088   1.425   1_455  A
C1084      C1085   1.407       .  A
C1085      C1086   1.397   1_455  A
C1085      H1095   1.083       .  S
C1086      C1087   1.405   1_556  A
C1086      H1096   1.082   1_556  S
C1087      C1088   1.423   1_554  A
C1087      C1094   1.419       .  A
C1088      C1091   1.420   1_556  A
C1089      C1090   1.396   1_455  A
C1089      H1097   1.083       .  S
C1090      C1091   1.407   1_556  A
C1090      H1098   1.083       .  S
C1091      C1092   1.416       .  A
C1092      C1093   1.398       .  A
C1093      C1094   1.398       .  A
C1093      H1100   1.085       .  S
O1101     Cu1109   2.010       .  S
O1101      C1111   1.279       .  A
O1102     Cu1109   2.010       .  S
O1102      C1112   1.276       .  A
O1103     Cu1109   2.013       .  S
O1103      C1113   1.277       .  A
O1104     Cu1109   2.013       .  S
O1104      C1114   1.280       .  A
O1105     Cu1110   2.017       .  S
O1105      C1114   1.276       .  A
O1106     Cu1110   2.018       .  S
O1106      C1113   1.279       .  A
O1107     Cu1110   2.021       .  S
O1107      C1112   1.280       .  A
O1108     Cu1110   2.020       .  S
O1108      C1111   1.278       .  A
Cu1109    Cu1110   2.358       .  S
C1111      C1505   1.497       .  S
C1112      C1342   1.499       .  S
C1113      C1489   1.497       .  S
C1114      C1326   1.504       .  S
O1115     Cu1123   2.017       .  S
O1115      C1125   1.280       .  A
O1116     Cu1123   2.019       .  S
O1116      C1126   1.278       .  A
O1117     Cu1123   2.017       .  S
O1117      C1127   1.277       .  A
O1118     Cu1123   2.024       .  S
O1118      C1128   1.281       .  A
O1119     Cu1124   2.008       .  S
O1119      C1128   1.276       .  A
O1120     Cu1124   2.012       .  S
O1120      C1127   1.279       .  A
O1121     Cu1124   2.011       .  S
O1121      C1126   1.278       .  A
O1122     Cu1124   2.012       .  S
O1122      C1125   1.276       .  A
Cu1123    Cu1124   2.362       .  S
C1125      C1294   1.499       .  S
C1126      C1361   1.484       .  S
C1127      C1313   1.493       .  S
C1128      C1377   1.504       .  S
O1129     Cu1137   2.000       .  S
O1129      C1139   1.274       .  A
O1130     Cu1137   1.995       .  S
O1130      C1140   1.277       .  A
O1131     Cu1137   2.020       .  S
O1131      C1141   1.278       .  A
O1132     Cu1137   2.022       .  S
O1132      C1142   1.280       .  A
O1133     Cu1138   2.007       .  S
O1133      C1142   1.276       .  A
O1134     Cu1138   2.005       .  S
O1134      C1141   1.277       .  A
O1135     Cu1138   2.014       .  S
O1135      C1140   1.277       .  A
O1136     Cu1138   2.012       .  S
O1136      C1139   1.280       .  A
Cu1137    Cu1138   2.363       .  S
C1139      C1566   1.498       .  S
C1140      C1281   1.496       .  S
C1141      C1553   1.488       .  S
C1142      C1262   1.485       .  S
N1143      N1144   1.321       .  A
N1143      C1147   1.351       .  A
N1143     Cu1151   2.095       .  S
N1144      C1145   1.341       .  A
N1144     Cu1150   2.054       .  S
C1145      C1146   1.377       .  A
C1145      H1148   1.083       .  S
C1146      C1441   1.478       .  S
C1146      C1147   1.389       .  A
C1147      H1149   1.081       .  S
Cu1151     N1161   2.097       .  S
Cu1152     N1154   2.106       .  S
Cu1152     N1160   2.108       .  S
N1153      N1154   1.322       .  A
N1153      C1157   1.343       .  A
N1154      C1155   1.352       .  A
C1155      C1156   1.391       .  A
C1155      H1158   1.082       .  S
C1156      C1422   1.484       .  S
C1156      C1157   1.379       .  A
C1157      H1159   1.081       .  S
N1160      C1164   1.351       .  A
N1161      C1162   1.347       .  A
C1162      C1163   1.385       .  A
C1162      H1165   1.082       .  S
C1163      C1239   1.484       .  S
C1164      H1166   1.082       .  S
N1167      N1168   1.321       .  A
N1167      C1171   1.349       .  A
N1167     Cu1175   2.081       .  S
N1168      C1169   1.339       .  A
C1169      C1170   1.377       .  A
C1169      H1172   1.082       .  S
C1170      C1278   1.473       .  S
C1170      C1171   1.387       .  A
C1171      H1173   1.081       .  S
Cu1174     N1177   2.059       .  S
Cu1175     N1185   2.083       .  S
Cu1176     N1178   2.099       .  S
Cu1176     N1184   2.101       .  S
N1177      N1178   1.321       .  A
N1177      C1181   1.341       .  A
N1178      C1179   1.351       .  A
C1179      C1180   1.391       .  A
C1179      H1182   1.081       .  S
C1180      C1265   1.484       .  S
C1180      C1181   1.379       .  A
C1181      H1183   1.082       .  S
N1184      C1188   1.349       .  A
N1185      C1186   1.347       .  A
C1186      H1189   1.082       .  S
C1187      C1241   1.482       .  S
C1187      C1188   1.386       .  A
C1188      H1190   1.082       .  S
N1191      N1192   1.321       .  A
N1191      C1195   1.350       .  A
N1191     Cu1199   2.089       .  S
N1192      C1193   1.342       .  A
C1193      C1194   1.379       .  A
C1193      H1196   1.082       .  S
C1194      C1345   1.478       .  S
C1194      C1195   1.387       .  A
C1195      H1197   1.082       .  S
Cu1198     N1201   2.053   1_554  S
Cu1199     N1209   2.090       .  S
Cu1200     N1202   2.091       .  S
Cu1200     N1208   2.093       .  S
N1201      N1202   1.320       .  A
N1201      C1205   1.341       .  A
N1202      C1203   1.351       .  A
C1203      C1204   1.389       .  A
C1203      H1206   1.082       .  S
C1204      C1329   1.479       .  S
C1204      C1205   1.378       .  A
C1205      H1207   1.082       .  S
N1208      C1212   1.347       .  A
N1209      C1210   1.347       .  A
C1210      H1213   1.082       .  S
C1211      C1254   1.483       .  S
C1211      C1212   1.382   1_554  A
C1212      H1214   1.082       .  S
N1215      N1216   1.321       .  A
N1215      C1219   1.351       .  A
N1215     Cu1223   2.097       .  S
N1216      C1217   1.340       .  A
N1216     Cu1222   2.052   1_556  S
C1217      C1218   1.379       .  A
C1217      H1220   1.082       .  S
C1218      C1310   1.481       .  S
C1218      C1219   1.390       .  A
C1219      H1221   1.082       .  S
Cu1223     N1233   2.099       .  S
Cu1224     N1226   2.097       .  S
Cu1224     N1232   2.099       .  S
N1225      N1226   1.322       .  A
N1225      C1229   1.342       .  A
N1226      C1227   1.351       .  A
C1227      C1228   1.388       .  A
C1227      H1230   1.082       .  S
C1228      C1297   1.478       .  S
C1228      C1229   1.377       .  A
C1229      H1231   1.082       .  S
N1232      C1236   1.349       .  A
N1233      C1234   1.349       .  A
C1234      C1235   1.385   1_556  A
C1234      H1237   1.082       .  S
C1235      C1252   1.482       .  S
C1236      H1238   1.082       .  S
C1239      C1240   1.399       .  A
C1239      C1244   1.420   1_556  A
C1240      C1241   1.398       .  A
C1240      H1259   1.085       .  S
C1241      C1242   1.418   1_556  A
C1242      C1243   1.422       .  A
C1242      C1249   1.406       .  A
C1243      C1244   1.423       .  A
C1243      C1248   1.426       .  A
C1244      C1245   1.407       .  A
C1245      C1246   1.399       .  A
C1245      H1255   1.083       .  S
C1246      C1247   1.407       .  A
C1246      H1256   1.083       .  S
C1247      C1248   1.422       .  A
C1247      C1254   1.420       .  A
C1248      C1251   1.422       .  A
C1249      C1250   1.396       .  A
C1249      H1257   1.083       .  S
C1250      C1251   1.406       .  A
C1250      H1258   1.083       .  S
C1251      C1252   1.418       .  A
C1252      C1253   1.399       .  A
C1253      C1254   1.399       .  A
C1253      H1260   1.085       .  S
C1261      C1262   1.405       .  A
C1261      C1266   1.410       .  A
C1261      H1268   1.083       .  S
C1262      C1263   1.419       .  A
C1263      C1264   1.408       .  A
C1263      C1270   1.520       .  S
C1264      C1265   1.404       .  A
C1264      H1269   1.083       .  S
C1265      C1266   1.416       .  A
C1266      C1267   1.517       .  S
C1267      F1271   1.384       .  S
C1267      F1272   1.381       .  S
C1267      F1273   1.383       .  S
C1270      F1274   1.382       .  S
C1270      F1275   1.384       .  S
C1270      F1276   1.385       .  S
C1277      C1278   1.399       .  A
C1277      C1282   1.410       .  A
C1277      H1284   1.083       .  S
C1278      C1279   1.411       .  A
C1279      C1280   1.403       .  A
C1279      C1286   1.520       .  S
C1280      C1281   1.410       .  A
C1280      H1285   1.082       .  S
C1281      C1282   1.427       .  A
C1282      C1283   1.520       .  S
C1283      F1287   1.385       .  S
C1283      F1288   1.383       .  S
C1283      F1289   1.384       .  S
C1286      F1290   1.381       .  S
C1286      F1291   1.383       .  S
C1286      F1292   1.385       .  S
C1293      C1294   1.410       .  A
C1293      C1298   1.407       .  A
C1293      H1300   1.082       .  S
C1294      C1295   1.428       .  A
C1295      C1296   1.411       .  A
C1295      C1302   1.521       .  S
C1296      C1297   1.399       .  A
C1296      H1301   1.083       .  S
C1297      C1298   1.411       .  A
C1298      C1299   1.518       .  S
C1299      F1303   1.384       .  S
C1299      F1304   1.383       .  S
C1299      F1305   1.383       .  S
C1302      F1306   1.383       .  S
C1302      F1307   1.383       .  S
C1302      F1308   1.385       .  S
C1309      C1310   1.402       .  A
C1309      C1314   1.412       .  A
C1309      H1316   1.083       .  S
C1310      C1311   1.417       .  A
C1311      C1312   1.404       .  A
C1311      C1318   1.519       .  S
C1312      C1313   1.406       .  A
C1312      H1317   1.084       .  S
C1313      C1314   1.424       .  A
C1314      C1315   1.519       .  S
C1315      F1319   1.385       .  S
C1315      F1320   1.383       .  S
C1315      F1321   1.384       .  S
C1318      F1322   1.382       .  S
C1318      F1323   1.383       .  S
C1318      F1324   1.385       .  S
C1325      C1326   1.411       .  A
C1325      C1330   1.406       .  A
C1325      H1332   1.082       .  S
C1326      C1327   1.430       .  A
C1327      C1328   1.412       .  A
C1327      C1334   1.521       .  S
C1328      C1329   1.399       .  A
C1328      H1333   1.083       .  S
C1329      C1330   1.411       .  A
C1330      C1331   1.519       .  S
C1331      F1335   1.384       .  S
C1331      F1336   1.383       .  S
C1331      F1337   1.382       .  S
C1334      F1338   1.383       .  S
C1334      F1339   1.383       .  S
C1334      F1340   1.385       .  S
C1341      C1342   1.409       .  A
C1341      C1346   1.407       .  A
C1341      H1348   1.082       .  S
C1342      C1343   1.429       .  A
C1343      C1344   1.411       .  A
C1343      C1350   1.521       .  S
C1344      C1345   1.399       .  A
C1344      H1349   1.083       .  S
C1345      C1346   1.412       .  A
C1346      C1347   1.518       .  S
C1347      F1351   1.384       .  S
C1347      F1352   1.383       .  S
C1347      F1353   1.383       .  S
C1350      F1354   1.384       .  S
C1350      F1355   1.383       .  S
C1350      F1356   1.385       .  S
C1357      C1358   1.405       .  A
C1357      C1362   1.409       .  A
C1357      H1364   1.083       .  S
C1358      C1359   1.416       .  A
C1359      C1360   1.409       .  A
C1359      C1366   1.518       .  S
C1360      C1361   1.405       .  A
C1360      H1365   1.083       .  S
C1361      C1362   1.418       .  A
C1362      C1363   1.519       .  S
C1363      F1367   1.385       .  S
C1363      F1368   1.382       .  S
C1363      F1369   1.384       .  S
C1366      F1370   1.381       .  S
C1366      F1371   1.383       .  S
C1366      F1372   1.384       .  S
C1373      C1374   1.401       .  A
C1373      C1378   1.410       .  A
C1373      H1380   1.083       .  S
C1374      C1375   1.415       .  A
C1375      C1376   1.411       .  A
C1375      C1382   1.519       .  S
C1376      C1377   1.411       .  A
C1376      H1381   1.082       .  S
C1377      C1378   1.429       .  A
C1378      C1379   1.522       .  S
C1379      F1383   1.385       .  S
C1379      F1384   1.383       .  S
C1379      F1385   1.384       .  S
C1382      F1386   1.381       .  S
C1382      F1387   1.383       .  S
C1382      F1388   1.384       .  S
C1389      C1390   1.404       .  A
C1389      C1394   1.411       .  A
C1389      H1396   1.083       .  S
C1390      C1391   1.413       .  A
C1391      C1392   1.404       .  A
C1391      C1398   1.519       .  S
C1392      C1393   1.405       .  A
C1392      H1397   1.083       .  S
C1393      C1394   1.419       .  A
C1394      C1395   1.519       .  S
C1395      F1399   1.385       .  S
C1395      F1400   1.381       .  S
C1395      F1401   1.383       .  S
C1398      F1402   1.382       .  S
C1398      F1403   1.383       .  S
C1398      F1404   1.384       .  S
C1405      C1406   1.400       .  A
C1405      C1410   1.410       .  A
C1405      H1412   1.083       .  S
C1406      C1407   1.411       .  A
C1407      C1408   1.409       .  A
C1407      C1414   1.517       .  S
C1408      C1409   1.410       .  A
C1408      H1413   1.082       .  S
C1409      C1410   1.426       .  A
C1410      C1411   1.520       .  S
C1411      F1415   1.385       .  S
C1411      F1416   1.384       .  S
C1411      F1417   1.383       .  S
C1414      F1418   1.383       .  S
C1414      F1419   1.383       .  S
C1414      F1420   1.384       .  S
C1421      C1422   1.400       .  A
C1421      C1426   1.411       .  A
C1421      H1428   1.083       .  S
C1422      C1423   1.417       .  A
C1423      C1424   1.410       .  A
C1423      C1430   1.519       .  S
C1424      C1425   1.406       .  A
C1424      H1429   1.083       .  S
C1425      C1426   1.423       .  A
C1426      C1427   1.519       .  S
C1427      F1431   1.385       .  S
C1427      F1432   1.384       .  S
C1427      F1433   1.382       .  S
C1430      F1434   1.383       .  S
C1430      F1435   1.382       .  S
C1430      F1436   1.385       .  S
C1437      C1438   1.407       .  A
C1437      C1442   1.407       .  A
C1437      H1444   1.083       .  S
C1438      C1439   1.423       .  A
C1439      C1440   1.410       .  A
C1439      C1446   1.519       .  S
C1440      C1441   1.400       .  A
C1440      H1445   1.084       .  S
C1441      C1442   1.414       .  A
C1442      C1443   1.519       .  S
C1443      F1447   1.385       .  S
C1443      F1448   1.383       .  S
C1443      F1449   1.382       .  S
C1446      F1450   1.384       .  S
C1446      F1451   1.382       .  S
C1446      F1452   1.385       .  S
C1453      C1454   1.399       .  A
C1453      C1458   1.412       .  A
C1453      H1460   1.083       .  S
C1454      C1455   1.412       .  A
C1455      C1456   1.409       .  A
C1455      C1462   1.518       .  S
C1456      C1457   1.411       .  A
C1456      H1461   1.082       .  S
C1457      C1458   1.429       .  A
C1458      C1459   1.521       .  S
C1459      F1463   1.385       .  S
C1459      F1464   1.383       .  S
C1459      F1465   1.384       .  S
C1462      F1466   1.383       .  S
C1462      F1467   1.382       .  S
C1462      F1468   1.384       .  S
C1469      C1470   1.413       .  A
C1469      C1474   1.409       .  A
C1469      H1476   1.082       .  S
C1470      C1471   1.431       .  A
C1471      C1472   1.410       .  A
C1471      C1478   1.522       .  S
C1472      C1473   1.397       .  A
C1472      H1477   1.083       .  S
C1473      C1474   1.409       .  A
C1474      C1475   1.517       .  S
C1475      F1479   1.384       .  S
C1475      F1480   1.383       .  S
C1475      F1481   1.383       .  S
C1478      F1482   1.385       .  S
C1478      F1483   1.383       .  S
C1478      F1484   1.383       .  S
C1485      C1486   1.399       .  A
C1485      C1490   1.410       .  A
C1485      H1492   1.083       .  S
C1486      C1487   1.412       .  A
C1487      C1488   1.408       .  A
C1487      C1494   1.518       .  S
C1488      C1489   1.409       .  A
C1488      H1493   1.082       .  S
C1489      C1490   1.427       .  A
C1490      C1491   1.520       .  S
C1491      F1495   1.385       .  S
C1491      F1496   1.383       .  S
C1491      F1497   1.384       .  S
C1494      F1498   1.382       .  S
C1494      F1499   1.383       .  S
C1494      F1500   1.385       .  S
C1501      C1502   1.400       .  A
C1501      C1506   1.410       .  A
C1501      H1508   1.083       .  S
C1502      C1503   1.411       .  A
C1503      C1504   1.408       .  A
C1503      C1510   1.518       .  S
C1504      C1505   1.410       .  A
C1504      H1509   1.083       .  S
C1505      C1506   1.425       .  A
C1506      C1507   1.519       .  S
C1507      F1511   1.385       .  S
C1507      F1512   1.383       .  S
C1507      F1513   1.383       .  S
C1510      F1514   1.383       .  S
C1510      F1515   1.382       .  S
C1510      F1516   1.385       .  S
C1517      C1518   1.409       .  A
C1517      C1522   1.410       .  A
C1517      H1524   1.082       .  S
C1518      C1519   1.423       .  A
C1519      C1520   1.406       .  A
C1519      C1526   1.522       .  S
C1520      C1521   1.402       .  A
C1520      H1525   1.083       .  S
C1521      C1522   1.415       .  A
C1522      C1523   1.518       .  S
C1523      F1527   1.385       .  S
C1523      F1528   1.383       .  S
C1523      F1529   1.381       .  S
C1526      F1530   1.384       .  S
C1526      F1531   1.383       .  S
C1526      F1532   1.385       .  S
C1533      C1534   1.398       .  A
C1533      C1538   1.412       .  A
C1533      H1540   1.083       .  S
C1534      C1535   1.413       .  A
C1535      C1536   1.409       .  A
C1535      C1542   1.519       .  S
C1536      C1537   1.411       .  A
C1536      H1541   1.082       .  S
C1537      C1538   1.431       .  A
C1538      C1539   1.521       .  S
C1539      F1543   1.385       .  S
C1539      F1544   1.383       .  S
C1539      F1545   1.383       .  S
C1542      F1546   1.382       .  S
C1542      F1547   1.383       .  S
C1542      F1548   1.384       .  S
C1549      C1550   1.406       .  A
C1549      C1554   1.407       .  A
C1549      H1556   1.083       .  S
C1550      C1551   1.418       .  A
C1551      C1552   1.409       .  A
C1551      C1558   1.519       .  S
C1552      C1553   1.407       .  A
C1552      H1557   1.083       .  S
C1553      C1554   1.418       .  A
C1554      C1555   1.520       .  S
C1555      F1559   1.385       .  S
C1555      F1560   1.382       .  S
C1555      F1561   1.384       .  S
C1558      F1562   1.383       .  S
C1558      F1563   1.380       .  S
C1558      F1564   1.385       .  S
C1565      C1566   1.410       .  A
C1565      C1570   1.406       .  A
C1565      H1572   1.082       .  S
C1566      C1567   1.428       .  A
C1567      C1568   1.409       .  A
C1567      C1574   1.522       .  S
C1568      C1569   1.400       .  A
C1568      H1573   1.083       .  S
C1569      C1570   1.413       .  A
C1570      C1571   1.519       .  S
C1571      F1575   1.385       .  S
C1571      F1576   1.381       .  S
C1571      F1577   1.383       .  S
C1574      F1578   1.384       .  S
C1574      F1579   1.383       .  S
C1574      F1580   1.385       .  S
C1581      C1582   1.407       .  A
C1581      C1586   1.405       .  A
C1581      H1588   1.083       .  S
C1582      C1583   1.424       .  A
C1583      C1584   1.410       .  A
C1583      C1590   1.519       .  S
C1584      C1585   1.400       .  A
C1584      H1589   1.083       .  S
C1585      C1586   1.414       .  A
C1586      C1587   1.519       .  S
C1587      F1591   1.385       .  S
C1587      F1592   1.381       .  S
C1587      F1593   1.384       .  S
C1590      F1594   1.382       .  S
C1590      F1595   1.384       .  S
C1590      F1596   1.385       .  S
C1597      C1598   1.409       .  A
C1597      C1602   1.404       .  A
C1597      H1604   1.083       .  S
C1598      C1599   1.427       .  A
C1599      C1600   1.409       .  A
C1599      C1606   1.520       .  S
C1600      C1601   1.399       .  A
C1600      H1605   1.083       .  S
C1601      C1602   1.412       .  A
C1602      C1603   1.520       .  S
C1603      F1607   1.384       .  S
C1603      F1608   1.381       .  S
C1603      F1609   1.384       .  S
C1606      F1610   1.383       .  S
C1606      F1611   1.384       .  S
C1606      F1612   1.385       .  S
C1613      C1614   1.408       .  A
C1613      C1618   1.408       .  A
C1613      H1620   1.082       .  S
C1614      C1615   1.427       .  A
C1615      C1616   1.413       .  A
C1615      C1622   1.520       .  S
C1616      C1617   1.401       .  A
C1616      H1621   1.083       .  S
C1617      C1618   1.418       .  A
C1618      C1619   1.520       .  S
C1619      F1623   1.385       .  S
C1619      F1624   1.383       .  S
C1619      F1625   1.381       .  S
C1622      F1626   1.384       .  S
C1622      F1627   1.383       .  S
C1622      F1628   1.385       .  S
C1629      C1630   1.403       .  A
C1629      C1634   1.409       .  A
C1629      H1636   1.083       .  S
C1630      C1631   1.413       .  A
C1631      C1632   1.407       .  A
C1631      C1638   1.518       .  S
C1632      C1633   1.407       .  A
C1632      H1637   1.083       .  S
C1633      C1634   1.421       .  A
C1634      C1635   1.520       .  S
C1635      F1639   1.385       .  S
C1635      F1640   1.384       .  S
C1635      F1641   1.382       .  S
C1638      F1642   1.384       .  S
C1638      F1643   1.382       .  S
C1638      F1644   1.385       .  S
