geometry optimzed in LAMMPS
_audit_creation_date              2020-11-30 
_audit_creation_method            'lammps2cif' 
_symmetry_space_group_name_H-M    'P1' 
_symmetry_Int_Tables_number       1 
_symmetry_cell_setting            triclinic 
loop_ 
_symmetry_equiv_pos_as_xyz 
  x,y,z 
_cell_length_a                    52.85092913 
_cell_length_b                    53.12149340714092 
_cell_length_c                    53.2907453449509 
_cell_angle_alpha                 90.03044483012093 
_cell_angle_beta                  90.47156135756723 
_cell_angle_gamma                 90.49793703191212 
loop_ 
_atom_site_label 
_atom_site_type_symbol 
_atom_site_fract_x 
_atom_site_fract_y 
_atom_site_fract_z 
_atom_site_charge 
O1          O  0.21384648  0.70219030  0.74641724    -0.80300
O2          O  0.22824124  0.79903460  0.78463030    -0.80300
O3          O  0.24536030  0.72278987  0.80390790    -0.80300
O4          O  0.24126838  0.77120491  0.70065978    -0.80200
O5          O  0.21561899  0.74765485  0.78854523    -0.80300
O6          O  0.21239356  0.74364313  0.71166818    -0.80300
O7          O  0.22776629  0.79096364  0.74373606    -0.80300
O8          O  0.24555483  0.68715831  0.76935171    -0.80300
C9          C  0.22272016  0.68588442  0.76158835     1.09400
C10         C  0.22202074  0.80536478  0.76239673     1.09300
C11         C  0.22331075  0.73219105  0.80527705     1.09500
C12         C  0.22024303  0.76041984  0.69651642     1.09300
O13         O  0.26225513  0.72924270  0.69589735    -0.80300
O14         O  0.26368885  0.76582910  0.80349909    -0.80300
O15         O  0.29287103  0.70465856  0.74958645    -0.80300
O16         O  0.27303402  0.80461656  0.72432990    -0.80200
O17         O  0.27360672  0.79227901  0.76384534    -0.80300
O18         O  0.26167945  0.68941815  0.72611327    -0.80300
O19         O  0.28928634  0.75522652  0.71532731    -0.80200
O20         O  0.29358815  0.74251720  0.78739213    -0.80300
Co21       Co  0.23764277  0.71785278  0.72215088     1.51500
Co22       Co  0.24267760  0.76860545  0.77247605     1.51700
Co23       Co  0.26913291  0.71615158  0.77565223     1.51600
Co24       Co  0.26053771  0.77176908  0.73271748     1.51500
O25         O  0.25242980  0.73956980  0.75046130    -1.42200
C26         C  0.28333353  0.74108280  0.69673193     1.09400
C27         C  0.28588267  0.75710538  0.80453943     1.09500
C28         C  0.28430478  0.68836197  0.73422224     1.09400
C29         C  0.27840524  0.80927880  0.74715244     1.09400
O30         O  0.74315990  0.22411201  0.69917087    -0.80300
O31         O  0.77316639  0.24464236  0.80512133    -0.80300
O32         O  0.78642727  0.21793884  0.73988311    -0.80300
O33         O  0.71599664  0.20862858  0.75098080    -0.80200
O34         O  0.80540083  0.24472662  0.76551544    -0.80300
O35         O  0.69815317  0.23307373  0.72410175    -0.80300
O36         O  0.75098882  0.21347698  0.78909186    -0.80300
O37         O  0.78324710  0.23319942  0.69134374    -0.80300
C38         C  0.76319254  0.22158913  0.68539341     1.09400
C39         C  0.76395593  0.22255181  0.80698662     1.09300
C40         C  0.80567863  0.22431569  0.75282134     1.09500
C41         C  0.69702386  0.21353307  0.73750188     1.09300
O42         O  0.71114070  0.28255078  0.73739413    -0.80300
O43         O  0.78386644  0.29267756  0.74893600    -0.80300
O44         O  0.75587399  0.27468194  0.69807346    -0.80300
O45         O  0.72788986  0.25985280  0.80436270    -0.80200
O46         O  0.75044465  0.29055416  0.78806872    -0.80300
O47         O  0.71580086  0.26503119  0.68959622    -0.80300
O48         O  0.69442820  0.25681729  0.76540794    -0.80200
O49         O  0.80102031  0.26647254  0.72372146    -0.80300
Co50       Co  0.72914180  0.25481768  0.72050012     1.51500
Co51       Co  0.77654409  0.26777259  0.77525135     1.51700
Co52       Co  0.76958559  0.24516272  0.72115035     1.51600
Co53       Co  0.72391320  0.23504626  0.77588665     1.51500
O54         O  0.74962364  0.25121175  0.75245655    -1.42200
C55         C  0.69278808  0.27625571  0.75143768     1.09400
C56         C  0.80264858  0.28669996  0.73601917     1.09500
C57         C  0.73595115  0.27647688  0.68370686     1.09400
C58         C  0.73730542  0.28195659  0.80585308     1.09400
O59         O  0.71038622  0.74041827  0.21221730    -0.80300
O60         O  0.81156976  0.77367041  0.22668840    -0.80300
O61         O  0.73626249  0.79782235  0.23745368    -0.80300
O62         O  0.77684992  0.69231348  0.24192156    -0.80200
O63         O  0.76155029  0.77740948  0.21138623    -0.80300
O64         O  0.75015051  0.70407420  0.21270381    -0.80300
O65         O  0.80125195  0.73330414  0.22685848    -0.80300
O66         O  0.69730857  0.76608235  0.24201307    -0.80300
C67         C  0.69490670  0.75677780  0.22014748     1.09400
C68         C  0.81678244  0.75123913  0.22073722     1.09300
C69         C  0.74721509  0.79586759  0.21627448     1.09500
C70         C  0.76633509  0.68843614  0.22084861     1.09300
O71         O  0.73512802  0.69131659  0.26337181    -0.80300
O72         O  0.77897663  0.79675241  0.25742074    -0.80300
O73         O  0.71333905  0.74963836  0.29030392    -0.80300
O74         O  0.81199792  0.71507799  0.27261992    -0.80200
O75         O  0.80164091  0.75532305  0.27266557    -0.80300
O76         O  0.69719025  0.72383699  0.26155578    -0.80300
O77         O  0.76205204  0.71127504  0.28889008    -0.80200
O78         O  0.75390354  0.78539025  0.28779056    -0.80300
Co79       Co  0.72509426  0.71689851  0.23744462     1.51500
Co80       Co  0.78010083  0.76347084  0.24050353     1.51700
Co81       Co  0.72702173  0.77272163  0.26428279     1.51600
Co82       Co  0.78005862  0.72525555  0.25935860     1.51500
O83         O  0.74883872  0.74458466  0.25037121    -1.42200
C84         C  0.74668428  0.69319064  0.28439839     1.09400
C85         C  0.76978349  0.80094516  0.27879760     1.09500
C86         C  0.69670740  0.73354419  0.28338670     1.09400
C87         C  0.81750094  0.73774508  0.27815997     1.09400
C88         C  0.53158113  0.00596531  0.01932104     0.02200
C89         C  0.51252646  0.98704776  0.01927019     0.02200
C90         C  0.49384493  0.98666061  0.00010865     0.02200
C91         C  0.49412677  0.00519275  0.98111849     0.02200
C92         C  0.51290418  0.02424162  0.98128926     0.02200
C93         C  0.53190416  0.02440627  0.00011013     0.02200
C94         C  0.69299189  0.96751921  0.17886078     0.80100
N95         N  0.67562530  0.97031777  0.16013060    -0.78200
C96         C  0.66083909  0.99097802  0.15866834     0.82600
N97         N  0.66354588  0.00915139  0.17634933    -0.78100
C98         C  0.68078214  0.00697803  0.19525537     0.82600
N99         N  0.69562392  0.98609473  0.19646745    -0.79900
C100        C  0.70320116  0.17857512  0.97703789     0.80100
N101        N  0.68600914  0.15938655  0.97663234    -0.78200
C102        C  0.67089780  0.15500868  0.99656896     0.82600
N103        N  0.67270990  0.17014971  0.01692075    -0.78100
C104        C  0.68938998  0.18970338  0.01764992     0.82600
N105        N  0.70487700  0.19384889  0.99766835    -0.79900
C106        C  0.33079151  0.97705319  0.82068244     0.80100
N107        N  0.31524242  0.99745903  0.81890051    -0.78200
C108        C  0.31981109  0.01841415  0.83322012     0.82600
N109        N  0.34027844  0.01897787  0.84874791    -0.78100
C110        C  0.35581719  0.99894948  0.85063165     0.82600
N111        N  0.35089582  0.97813660  0.83669575    -0.79900
C112        C  0.52577735  0.17489053  0.80807889     0.80100
N113        N  0.52655495  0.15841261  0.82751530    -0.78200
C114        C  0.50657654  0.15518894  0.84302478     0.82600
N115        N  0.48526951  0.16880995  0.83874282    -0.78100
C116        C  0.48388704  0.18543568  0.81930077     0.82600
N117        N  0.50427993  0.18836197  0.80394631    -0.79900
C118        C  0.48374217  0.82957753  0.18403278     0.80100
N119        N  0.50439407  0.81455919  0.18607159    -0.78200
C120        C  0.52469542  0.81800452  0.17089780     0.82600
N121        N  0.52399559  0.83644777  0.15328312    -0.78100
C122        C  0.50362244  0.85166464  0.15119924     0.82600
N123        N  0.48357952  0.84829046  0.16663775    -0.79900
C124        C  0.32132889  0.83358119  0.01596768     0.80100
N125        N  0.34075286  0.85049568  0.01674777    -0.78200
C126        C  0.35564807  0.85449992  0.99653650     0.82600
N127        N  0.35088471  0.84128920  0.97528056    -0.78100
C128        C  0.33179318  0.82410489  0.97389372     0.82600
N129        N  0.31692732  0.82019794  0.99441792    -0.79900
C130        C  0.97648665  0.47919821  0.99828682     0.02200
C131        C  0.99500034  0.47787319  0.97954845     0.02200
C132        C  0.01506822  0.49559447  0.97924930     0.02200
C133        C  0.01674079  0.51431457  0.99806340     0.02200
C134        C  0.99838042  0.51526242  0.01712634     0.02200
C135        C  0.97813163  0.49792304  0.01688660     0.02200
C136        C  0.16938587  0.68691811  0.97972630     0.80100
N137        N  0.18288187  0.69071705  0.00153721    -0.78200
C138        C  0.17745731  0.67666762  0.02246106     0.82600
N139        N  0.15873405  0.65902446  0.02105575    -0.78100
C140        C  0.14566802  0.65484038  0.99948192     0.82600
N141        N  0.15110039  0.66885091  0.97903544    -0.79900
C142        C  0.16696884  0.51285515  0.81160205     0.80100
N143        N  0.14836447  0.51102574  0.82879234    -0.78200
C144        C  0.14386790  0.48952021  0.84155337     0.82600
N145        N  0.15845435  0.46914916  0.83698701    -0.78100
C146        C  0.17714202  0.47030713  0.81955276     0.82600
N147        N  0.18144173  0.49228541  0.80693514    -0.79900
C148        C  0.98541414  0.68087970  0.17483916     0.80100
N149        N  0.00722234  0.68482814  0.18818873    -0.78200
C150        C  0.02790824  0.67023914  0.18398731     0.82600
N151        N  0.02634926  0.65166867  0.16642257    -0.78100
C152        C  0.00473424  0.64750247  0.15307526     0.82600
N153        N  0.98451532  0.66229435  0.15740453    -0.79900
C154        C  0.81792567  0.47002897  0.17357478     0.80100
N155        N  0.83372320  0.47138468  0.15366167    -0.78200
C156        C  0.83663902  0.49291259  0.14044574     0.82600
N157        N  0.82357240  0.51350379  0.14733971    -0.78100
C158        C  0.80761775  0.51293220  0.16713687     0.82600
N159        N  0.80485163  0.49106141  0.18044302    -0.79900
C160        C  0.01462957  0.31198667  0.82528525     0.80100
N161        N  0.01286499  0.32944796  0.84378009    -0.78200
C162        C  0.99132392  0.34251878  0.84735660     0.82600
N163        N  0.97124767  0.33829758  0.83195212    -0.78100
C164        C  0.97242897  0.32099269  0.81323071     0.82600
N165        N  0.99421094  0.30776172  0.80990185    -0.79900
C166        C  0.80126002  0.32971830  0.01935087     0.80100
N167        N  0.78887828  0.32501304  0.99727959    -0.78200
C168        C  0.79615388  0.33699529  0.97586323     0.82600
N169        N  0.81567333  0.35374130  0.97682534    -0.78100
C170        C  0.82799505  0.35880124  0.99868324     0.82600
N171        N  0.82075101  0.34655461  0.01977897    -0.79900
C172        C  0.47820560  0.51741910  0.50796074     0.02200
C173        C  0.47923443  0.49900721  0.52711819     0.02200
C174        C  0.49928225  0.48144973  0.52777228     0.02200
C175        C  0.51769692  0.48176766  0.50860018     0.02200
C176        C  0.51647595  0.49997662  0.48922093     0.02200
C177        C  0.49707467  0.51808781  0.48934505     0.02200
C178        C  0.47645341  0.30939277  0.67902491     0.80100
N179        N  0.47606351  0.32917225  0.66283827    -0.78200
C180        C  0.49629567  0.34483657  0.66041857     0.82600
N181        N  0.51728286  0.34045108  0.67452444    -0.78100
C182        C  0.51832063  0.32087181  0.69091130     0.82600
N183        N  0.49778526  0.30523974  0.69303589    -0.79900
C184        C  0.32331284  0.68561695  0.52387646     0.80100
N185        N  0.34078629  0.66705368  0.52398985    -0.78200
C186        C  0.34487751  0.65268622  0.50343636     0.82600
N187        N  0.33125169  0.65726607  0.48223166    -0.78100
C188        C  0.31348475  0.67567807  0.48147503     0.82600
N189        N  0.30948563  0.68987416  0.50252633    -0.79900
C190        C  0.67056448  0.48361413  0.31913079     0.80100
N191        N  0.65098240  0.48352056  0.33553577    -0.78200
C192        C  0.64566474  0.50409220  0.34960336     0.82600
N193        N  0.66035315  0.52501878  0.34710564    -0.78100
C194        C  0.67997691  0.52569442  0.33081051     0.82600
N195        N  0.68504804  0.50487845  0.31673585    -0.79900
C196        C  0.52328045  0.68600591  0.33559692     0.80100
N197        N  0.50293820  0.68887523  0.32001306    -0.78200
C198        C  0.48153015  0.67481600  0.32336998     0.82600
N199        N  0.48082226  0.65775748  0.34235363    -0.78100
C200        C  0.50110182  0.65443153  0.35774551     0.82600
N201        N  0.52222129  0.66865652  0.35427020    -0.79900
C202        C  0.31420493  0.47010460  0.68377530     0.80100
N203        N  0.33273145  0.46925086  0.66625222    -0.78200
C204        C  0.34824906  0.48931170  0.66256620     0.82600
N205        N  0.34511963  0.51046958  0.67625254    -0.78100
C206        C  0.32642168  0.51190067  0.69343233     0.82600
N207        N  0.31083559  0.49169921  0.69713089    -0.79900
C208        C  0.66879673  0.31504645  0.47383292     0.80100
N209        N  0.65075047  0.33292180  0.47633006    -0.78200
C210        C  0.64980350  0.34733231  0.49727122     0.82600
N211        N  0.66684430  0.34380174  0.51595490    -0.78100
C212        C  0.68463875  0.32565754  0.51421377     0.82600
N213        N  0.68564798  0.31128096  0.49302012    -0.79900
C214        C  0.01316761  0.96987542  0.50343587     0.02200
C215        C  0.99465256  0.97049488  0.48422063     0.02200
C216        C  0.97536729  0.98868861  0.48483629     0.02200
C217        C  0.97477271  0.00657629  0.50436555     0.02200
C218        C  0.99308810  0.00590221  0.52370798     0.02200
C219        C  0.01227747  0.98752420  0.52325263     0.02200
C220        C  0.97385983  0.16689822  0.68686525     0.80100
N221        N  0.99613397  0.18000210  0.68973113    -0.78200
C222        C  0.01724138  0.17263130  0.67712948     0.82600
N223        N  0.01559285  0.15227986  0.66179575    -0.78100
C224        C  0.99379872  0.13907369  0.65870488     0.82600
N225        N  0.97295064  0.14652298  0.67132095    -0.79900
C226        C  0.17848966  0.01519201  0.67741355     0.80100
N227        N  0.15925942  0.01258704  0.66057643    -0.78200
C228        C  0.14875266  0.98969299  0.65574706     0.82600
N229        N  0.15741102  0.96920966  0.66822873    -0.78100
C230        C  0.17620419  0.97155012  0.68565429     0.82600
N231        N  0.18687837  0.99458884  0.69017070    -0.79900
C232        C  0.17752342  0.81092764  0.52015236     0.80100
N233        N  0.15901250  0.82847620  0.51937085    -0.78200
C234        C  0.15411257  0.84185480  0.49821428     0.82600
N235        N  0.16818574  0.83742889  0.47745891    -0.78100
C236        C  0.18684483  0.81990016  0.47769930     0.82600
N237        N  0.19152379  0.80665404  0.49919556    -0.79900
C238        C  0.81068898  0.16654941  0.51562832     0.80100
N239        N  0.80839536  0.18003725  0.49399830    -0.78200
C240        C  0.82312022  0.17454249  0.47387244     0.82600
N241        N  0.83983519  0.15535998  0.47552975    -0.78100
C242        C  0.84227143  0.14177217  0.49689204     0.82600
N243        N  0.82771776  0.14753787  0.51687826    -0.79900
C244        C  0.81409817  0.97989116  0.32249449     0.80100
N245        N  0.83045945  0.98066442  0.34211008    -0.78200
C246        C  0.84393815  0.00165202  0.34778147     0.82600
N247        N  0.84088197  0.02250134  0.33339592    -0.78100
C248        C  0.82459928  0.02242743  0.31342595     0.82600
N249        N  0.81122636  0.00085551  0.30787820    -0.79900
C250        C  0.98466448  0.81969847  0.31343875     0.80100
N251        N  0.98342318  0.83751407  0.33163634    -0.78200
C252        C  0.00336748  0.85284981  0.33664871     0.82600
N253        N  0.02471732  0.85049024  0.32308894    -0.78100
C254        C  0.02646277  0.83308972  0.30451089     0.82600
N255        N  0.00626768  0.81752311  0.29974797    -0.79900
O256        O  0.25069385  0.20617597  0.71551983    -0.80300
O257        O  0.20958265  0.29650828  0.72125694    -0.80300
O258        O  0.19268749  0.22175803  0.74355796    -0.80300
O259        O  0.28555150  0.24492112  0.71090593    -0.80200
O260        O  0.20969587  0.24426071  0.71342607    -0.80300
O261        O  0.30264895  0.21014325  0.72465933    -0.80300
O262        O  0.24643679  0.28153991  0.71160893    -0.80300
O263        O  0.22907826  0.18825377  0.74567336    -0.80300
C264        C  0.23774724  0.18773839  0.72359655     1.09400
C265        C  0.23180385  0.30069945  0.71303399     1.09300
C266        C  0.19257251  0.22923223  0.72098988     1.09500
C267        C  0.30519318  0.23079126  0.71268670     1.09300
O268        O  0.29526860  0.23015651  0.77070992    -0.80300
O269        O  0.19130507  0.26476002  0.75935949    -0.80300
O270        O  0.24639922  0.20498515  0.79353968    -0.80300
O271        O  0.26781753  0.30076392  0.75844412    -0.80200
O272        O  0.22932032  0.29125221  0.76775343    -0.80300
O273        O  0.27143166  0.19085119  0.76371290    -0.80300
O274        O  0.30564250  0.26646026  0.75668967    -0.80200
O275        O  0.20573512  0.24271319  0.79141390    -0.80300
Co276      Co  0.27287867  0.22134644  0.74212311     1.51500
Co277      Co  0.22270604  0.26781521  0.73980664     1.51700
Co278      Co  0.22084100  0.21697122  0.76822198     1.51600
Co279      Co  0.27384341  0.27103374  0.73627490     1.51500
O280        O  0.24687630  0.24384414  0.75498457    -1.42200
C281        C  0.31090914  0.24784749  0.77015812     1.09400
C282        C  0.18938856  0.25773066  0.78198411     1.09500
C283        C  0.26276596  0.18916131  0.78586218     1.09400
C284        C  0.24797329  0.30563400  0.77023233     1.09400
O285        O  0.75674442  0.19489810  0.26579283    -0.80300
O286        O  0.74537363  0.29177406  0.22476069    -0.80300
O287        O  0.75401994  0.23852961  0.19506114    -0.80300
O288        O  0.77984495  0.24369150  0.28765139    -0.80200
O289        O  0.73994361  0.27635955  0.20310451    -0.80300
O290        O  0.74861093  0.22091069  0.30319089    -0.80300
O291        O  0.77878139  0.28379171  0.25009436    -0.80300
O292        O  0.76853572  0.20117963  0.22745421    -0.80300
C293        C  0.77117728  0.18973677  0.24793169     1.09400
C294        C  0.76777890  0.29767042  0.23375914     1.09300
C295        C  0.75196739  0.26136733  0.18882527     1.09500
C296        C  0.77153247  0.22833113  0.30403554     1.09300
O297        O  0.70161120  0.24106568  0.28566419    -0.80300
O298        O  0.69467710  0.27233160  0.20357422    -0.80300
O299        O  0.71611002  0.19017575  0.24100405    -0.80300
O300        O  0.73595764  0.30185055  0.27272962    -0.80200
O301        O  0.70283140  0.29384555  0.24890287    -0.80300
O302        O  0.71044350  0.18937391  0.28273174    -0.80300
O303        O  0.73186620  0.26355770  0.30445582    -0.80200
O304        O  0.70122305  0.23237039  0.21082340    -0.80300
Co305      Co  0.72789777  0.21862828  0.27203667     1.51500
Co306      Co  0.71740841  0.26443496  0.23092300     1.51700
Co307      Co  0.73591647  0.21836103  0.22115849     1.51600
Co308      Co  0.75642548  0.27079621  0.27666710     1.51500
O309        O  0.74100136  0.24551673  0.25126392    -1.42200
C310        C  0.70904083  0.25555013  0.30334255     1.09400
C311        C  0.69516900  0.24986090  0.19518629     1.09500
C312        C  0.70763370  0.17918890  0.26117659     1.09400
C313        C  0.71472460  0.30817990  0.26392556     1.09400
O314        O  0.31264952  0.72158313  0.21556196    -0.80300
O315        O  0.21841601  0.71576111  0.25340975    -0.80300
O316        O  0.25623747  0.71279714  0.28931429    -0.80300
O317        O  0.23783892  0.74132456  0.19278721    -0.80200
O318        O  0.22130647  0.72871292  0.30410363    -0.80300
O319        O  0.26049681  0.71236687  0.21155932    -0.80300
O320        O  0.20263809  0.74405865  0.22780995    -0.80300
O321        O  0.29463184  0.71123247  0.25082923    -0.80300
C322        C  0.31479882  0.71202570  0.23743147     1.09400
C323        C  0.20145205  0.72251990  0.23787372     1.09300
C324        C  0.24153202  0.71643380  0.30825098     1.09500
C325        C  0.24631312  0.71912584  0.19347468     1.09300
O326        O  0.28143991  0.75882604  0.19270852    -0.80300
O327        O  0.24249704  0.77403766  0.29336728    -0.80300
O328        O  0.31387110  0.75877266  0.27028517    -0.80300
O329        O  0.21863430  0.79287918  0.24306262    -0.80200
O330        O  0.20275329  0.76482614  0.26936272    -0.80300
O331        O  0.30471677  0.76904663  0.23225519    -0.80300
O332        O  0.25741075  0.79002594  0.20524235    -0.80200
O333        O  0.27776496  0.75926764  0.30629681    -0.80300
Co334      Co  0.28268539  0.74000004  0.22509380     1.51500
Co335      Co  0.23348472  0.74390669  0.27350005     1.51700
Co336      Co  0.28320655  0.73726517  0.27623467     1.51600
Co337      Co  0.23148377  0.76672752  0.21972886     1.51500
O338        O  0.25709204  0.75482907  0.24736617    -1.42200
C339        C  0.27250993  0.78071256  0.18922655     1.09400
C340        C  0.25926800  0.77338332  0.30993787     1.09500
C341        C  0.31877609  0.77139796  0.25100695     1.09400
C342        C  0.20161378  0.78606431  0.25850789     1.09400
C343        C  0.13668820  0.81198663  0.24630036    -0.27700
C344        C  0.12832413  0.81595788  0.27090475     0.01900
C345        C  0.14538704  0.81274735  0.29109400     0.30000
C346        C  0.17012073  0.80493027  0.28656156    -0.19500
C347        C  0.17843785  0.80064758  0.26205040    -0.28900
C348        C  0.16158862  0.80434311  0.24179102     0.44000
C349        C  0.10152376  0.82220943  0.27573209     0.05200
O350        O  0.13738136  0.81510036  0.31541773    -0.57400
H351        H  0.18242914  0.80089873  0.30236615     0.18100
O352        O  0.16869361  0.79870257  0.21774223    -0.64200
H353        H  0.12366915  0.81409785  0.23064693     0.16600
C354        C  0.09543290  0.84405431  0.28911559     0.28800
C355        C  0.07066596  0.84787407  0.29701810    -0.25100
C356        C  0.05130467  0.83015836  0.29177998    -0.24300
C357        C  0.05704545  0.80928326  0.27644271     0.40300
C358        C  0.08206247  0.80539131  0.26866843    -0.26800
O359        O  0.11382166  0.86135592  0.29544220    -0.58700
H360        H  0.06692400  0.86451068  0.30809303     0.15900
O361        O  0.03883164  0.79183804  0.27007531    -0.60100
H362        H  0.08647418  0.78860953  0.25805456     0.14400
H363        H  0.16366458  0.78085428  0.21518459     0.46200
H364        H  0.11399497  0.87360655  0.28141343     0.41600
H365        H  0.03182713  0.79768370  0.25379361     0.45000
H366        H  0.14621186  0.83025452  0.32211662     0.36500
C367        C  0.79558162  0.12341317  0.24202084    -0.27700
C368        C  0.80629923  0.11965402  0.26600095     0.01900
C369        C  0.80956762  0.14080325  0.28183018     0.30000
C370        C  0.80061717  0.16449927  0.27438613    -0.19500
C371        C  0.78823534  0.16783484  0.25120533    -0.28900
C372        C  0.78655589  0.14716331  0.23462701     0.44000
C373        C  0.81206032  0.09359777  0.27529006     0.05200
O374        O  0.81995257  0.13824815  0.30535761    -0.57400
H375        H  0.80186161  0.18002286  0.28752770     0.18100
O376        O  0.77358341  0.14920797  0.21234212    -0.64200
H377        H  0.79317799  0.10762407  0.22934001     0.16600
C378        C  0.79358909  0.07420968  0.27457384     0.28800
C379        C  0.79819619  0.05082903  0.28608982    -0.25100
C380        C  0.82119620  0.04611620  0.29856308    -0.24300
C381        C  0.84022855  0.06505859  0.29801438     0.40300
C382        C  0.83554544  0.08840759  0.28658791    -0.26800
O383        O  0.77032035  0.07841393  0.26397948    -0.58700
H384        H  0.78325826  0.03673555  0.28611517     0.15900
O385        O  0.86345563  0.06121332  0.30894875    -0.60100
H386        H  0.85027297  0.10271984  0.28691860     0.14400
H387        H  0.78605777  0.15607520  0.20029379     0.46200
H388        H  0.77109353  0.07042926  0.24718898     0.41600
H389        H  0.87336242  0.05205073  0.29618976     0.45000
H390        H  0.80547085  0.13456452  0.31652966     0.36500
C391        C  0.83580972  0.19864601  0.40801677    -0.27700
C392        C  0.81173706  0.20682201  0.40093469     0.01900
C393        C  0.79228890  0.20740290  0.41881471     0.30000
C394        C  0.79659907  0.19819518  0.44305052    -0.19500
C395        C  0.82019363  0.18812573  0.44973067    -0.28900
C396        C  0.84014150  0.18921447  0.43218763     0.44000
C397        C  0.80577743  0.21094959  0.37421278     0.05200
O398        O  0.76855946  0.21551503  0.41226777    -0.57400
H399        H  0.78103832  0.19766588  0.45615287     0.18100
O400        O  0.86389044  0.18089847  0.43838451    -0.64200
H401        H  0.85090110  0.19827806  0.39438048     0.16600
C402        C  0.81345909  0.23280813  0.36137221     0.28800
C403        C  0.80401973  0.23749554  0.33713497    -0.25100
C404        C  0.78704430  0.22042289  0.32568169    -0.24300
C405        C  0.78137739  0.19749471  0.33782025     0.40300
C406        C  0.79076376  0.19293969  0.36187536    -0.26800
O407        O  0.82853249  0.25047880  0.37301817    -0.58700
H408        H  0.80850409  0.25523387  0.32811059     0.15900
O409        O  0.76606244  0.17971186  0.32655138    -0.60100
H410        H  0.78538954  0.17570602  0.37140755     0.14400
H411        H  0.86537801  0.16419439  0.43021636     0.46200
H412        H  0.84610797  0.24548337  0.36914278     0.41600
H413        H  0.74951427  0.18093596  0.33509013     0.45000
H414        H  0.76940134  0.23411830  0.41363714     0.36500
C415        C  0.25810580  0.78494131  0.38040466    -0.27700
C416        C  0.23595476  0.79921903  0.38262387     0.01900
C417        C  0.22395779  0.80782633  0.36058856     0.30000
C418        C  0.23353108  0.80147955  0.33699569    -0.19500
C419        C  0.25472496  0.78583283  0.33460213    -0.28900
C420        C  0.26755033  0.77828552  0.35672285     0.44000
C421        C  0.22490662  0.80444953  0.40779531     0.05200
O422        O  0.20199858  0.82133122  0.36186052    -0.57400
H423        H  0.22333371  0.80763502  0.32044318     0.18100
O424        O  0.28822309  0.76291674  0.35558884    -0.64200
H425        H  0.26778138  0.77841851  0.39713398     0.16600
C426        C  0.21804251  0.78473444  0.42417397     0.28800
C427        C  0.20685005  0.79002528  0.44741007    -0.25100
C428        C  0.20119747  0.81487317  0.45430265    -0.24300
C429        C  0.20782924  0.83457934  0.43777412     0.40300
C430        C  0.21989116  0.82931594  0.41500332    -0.26800
O431        O  0.22100930  0.76015444  0.41709452    -0.58700
H432        H  0.20144504  0.77454534  0.45952183     0.15900
O433        O  0.20310960  0.85915030  0.44396565    -0.60100
H434        H  0.22501296  0.84475227  0.40271770     0.14400
H435        H  0.30281959  0.77440366  0.35285569     0.46200
H436        H  0.20529034  0.75566018  0.40778272     0.41600
H437        H  0.18870715  0.86418691  0.43308981     0.45000
H438        H  0.18817064  0.80864618  0.36050693     0.36500
C439        C  0.22652521  0.06827585  0.68635834    -0.27700
C440        C  0.21071642  0.08940284  0.68770306     0.01900
C441        C  0.18433701  0.08584797  0.68550395     0.30000
C442        C  0.17420689  0.06162996  0.68202593    -0.19500
C443        C  0.18994147  0.04045509  0.68137881    -0.28900
C444        C  0.21633448  0.04397322  0.68325596     0.44000
C445        C  0.22152602  0.11463678  0.69398817     0.05200
O446        O  0.16820296  0.10581954  0.68758569    -0.57400
H447        H  0.15386094  0.05931944  0.68046447     0.18100
O448        O  0.23235610  0.02387076  0.68171950    -0.64200
H449        H  0.24685658  0.07063518  0.68797078     0.16600
C450        C  0.23580851  0.11784542  0.71616634     0.28800
C451        C  0.24298060  0.14193966  0.72401173    -0.25100
C452        C  0.23586111  0.16338675  0.71035513    -0.24300
C453        C  0.22285113  0.16032198  0.68742797     0.40300
C454        C  0.21569807  0.13599880  0.67938183    -0.26800
O455        O  0.24131881  0.09769794  0.73129513    -0.58700
H456        H  0.25280417  0.14398930  0.74185488     0.15900
O457        O  0.21499036  0.18089091  0.67404275    -0.60100
H458        H  0.20468094  0.13387209  0.66227033     0.14400
H459        H  0.23519489  0.02138323  0.66351511     0.46200
H460        H  0.22718211  0.09665288  0.74338644     0.41600
H461        H  0.22984330  0.18610506  0.66400121     0.45000
H462        H  0.16553308  0.10796027  0.70586030     0.36500
C463        C  0.13520064  0.19237417  0.70030540    -0.27700
C464        C  0.11934056  0.21146772  0.69144220     0.01900
C465        C  0.12935594  0.23594841  0.68843604     0.30000
C466        C  0.15461361  0.24124540  0.69551299    -0.19500
C467        C  0.16999598  0.22232325  0.70579658    -0.28900
C468        C  0.16013061  0.19764357  0.70766414     0.44000
C469        C  0.09247865  0.20499754  0.68567125     0.05200
O470        O  0.11438124  0.25493416  0.67948478    -0.57400
H471        H  0.16156455  0.26047117  0.69463281     0.18100
O472        O  0.17449984  0.17867762  0.71767486    -0.64200
H473        H  0.12786028  0.17340205  0.70256044     0.16600
C474        C  0.08683608  0.18732432  0.66684867     0.28800
C475        C  0.06216063  0.17814689  0.66379401    -0.25100
C476        C  0.04242719  0.18564218  0.67976351    -0.24300
C477        C  0.04792587  0.20409261  0.69821894     0.40300
C478        C  0.07278317  0.21374474  0.70091408    -0.26800
O479        O  0.10552090  0.17868284  0.65141012    -0.58700
H480        H  0.05879384  0.16445111  0.64908181     0.15900
O481        O  0.02946847  0.21239922  0.71407072    -0.60100
H482        H  0.07692151  0.22720610  0.71570015     0.14400
H483        H  0.16833355  0.17636291  0.73505380     0.46200
H484        H  0.11012944  0.16192304  0.65814795     0.41600
H485        H  0.03203164  0.20290406  0.72989406     0.45000
H486        H  0.11804384  0.25590061  0.66128915     0.36500
C487        C  0.01359346  0.94084110  0.42268287    -0.27700
C488        C  0.99770228  0.91958599  0.42179415     0.01900
C489        C  0.98101000  0.91482158  0.44173734     0.30000
C490        C  0.98026503  0.93144624  0.46211366    -0.19500
C491        C  0.99604605  0.95277354  0.46282796    -0.28900
C492        C  0.01286105  0.95741335  0.44305182     0.44000
C493        C  0.99893446  0.90259587  0.39990462     0.05200
O494        O  0.96615474  0.89350316  0.44186478    -0.57400
H495        H  0.96745194  0.92766142  0.47743381     0.18100
O496        O  0.02784197  0.97865428  0.44312203    -0.64200
H497        H  0.02639752  0.94474947  0.40736373     0.16600
C498        C  0.97757647  0.89817783  0.38453023     0.28800
C499        C  0.97929009  0.88202543  0.36389716    -0.25100
C500        C  0.00234547  0.87064849  0.35787434    -0.24300
C501        C  0.02389916  0.87566034  0.37290832     0.40300
C502        C  0.02201653  0.89140619  0.39382666    -0.26800
O503        O  0.95504738  0.90978733  0.38933745    -0.58700
H504        H  0.96260770  0.87860438  0.35239619     0.15900
O505        O  0.04654409  0.86424293  0.36813783    -0.60100
H506        H  0.03859678  0.89473111  0.40550761     0.14400
H507        H  0.04553388  0.97259054  0.44316691     0.46200
H508        H  0.95616104  0.92629515  0.38071256     0.41600
H509        H  0.05671990  0.87700651  0.35901562     0.45000
H510        H  0.94860939  0.89941863  0.43908127     0.36500
C511        C  0.91294268  0.98282337  0.45000268    -0.27700
C512        C  0.91871237  0.99473779  0.42723223     0.01900
C513        C  0.94339264  0.00393873  0.42317012     0.30000
C514        C  0.96188615  0.00134838  0.44185508    -0.19500
C515        C  0.95602221  0.98963845  0.46464531    -0.28900
C516        C  0.93145959  0.98021229  0.46866338     0.44000
C517        C  0.89908762  0.99677420  0.40749956     0.05200
O518        O  0.94958623  0.01544062  0.40099555    -0.57400
H519        H  0.98076238  0.00875281  0.43873049     0.18100
O520        O  0.92528183  0.96902267  0.49100224    -0.64200
H521        H  0.89399021  0.97572145  0.45335075     0.16600
C522        C  0.88809653  0.97499026  0.39706764     0.28800
C523        C  0.87016762  0.97704628  0.37784189    -0.25100
C524        C  0.86267334  0.00073579  0.36867429    -0.24300
C525        C  0.87350305  0.02262771  0.37947546     0.40300
C526        C  0.89157615  0.02049983  0.39875863    -0.26800
O527        O  0.89567289  0.95155874  0.40474903    -0.58700
H528        H  0.86244635  0.95984445  0.36984646     0.15900
O529        O  0.86613288  0.04613108  0.37189188    -0.60100
H530        H  0.89974390  0.03741496  0.40695851     0.14400
H531        H  0.92857585  0.95085435  0.48853810     0.46200
H532        H  0.88212987  0.94542580  0.41603910     0.41600
H533        H  0.87948572  0.05196105  0.36023506     0.45000
H534        H  0.95428582  0.00154897  0.38955030     0.36500
C535        C  0.88708233  0.08936170  0.47886379    -0.27700
C536        C  0.89821528  0.08355993  0.50208491     0.01900
C537        C  0.89060775  0.09664600  0.52368634     0.30000
C538        C  0.87201657  0.11519684  0.52185198    -0.19500
C539        C  0.86102197  0.12126023  0.49853642    -0.28900
C540        C  0.86853778  0.10788967  0.47697458     0.44000
C541        C  0.91795840  0.06401433  0.50332811     0.05200
O542        O  0.90156775  0.09176806  0.54657185    -0.57400
H543        H  0.86665149  0.12528164  0.53863819     0.18100
O544        O  0.85772783  0.11252609  0.45396967    -0.64200
H545        H  0.89265297  0.07927577  0.46213757     0.16600
C546        C  0.91464823  0.04217924  0.51795054     0.28800
C547        C  0.93333101  0.02367935  0.51829365    -0.34700
C548        C  0.95534735  0.02660535  0.50408658    -0.24300
C549        C  0.95862651  0.04830403  0.48933770     0.40300
C550        C  0.93992811  0.06679495  0.48893262    -0.26800
O551        O  0.89298176  0.03852209  0.53150364    -0.58700
H552        H  0.93045054  0.00678912  0.52929127     0.15900
O553        O  0.97978404  0.05124585  0.47485725    -0.60100
H554        H  0.94258532  0.08338688  0.47739898     0.14400
H555        H  0.84196182  0.10226277  0.45359394     0.46200
H556        H  0.88127104  0.02930447  0.52006251     0.41600
H557        H  0.99073781  0.06338763  0.48411227     0.45000
H558        H  0.91644239  0.10323604  0.54761751     0.36500
C559        C  0.01372587  0.08800355  0.61289473    -0.27700
C560        C  0.99037250  0.07998733  0.60308334     0.01900
C561        C  0.96797420  0.08996513  0.61298030     0.30000
C562        C  0.96924557  0.10854614  0.63169668    -0.19500
C563        C  0.99274288  0.11754768  0.64076445    -0.28900
C564        C  0.01511270  0.10655261  0.63148421     0.44000
C565        C  0.98995347  0.06147381  0.58228233     0.05200
O566        O  0.94479136  0.08213468  0.60407422    -0.57400
H567        H  0.95177766  0.11643565  0.63854330     0.18100
O568        O  0.03848625  0.11337056  0.64074165    -0.64200
H569        H  0.03108231  0.07991969  0.60595110     0.16600
C570        C  0.00248340  0.06676267  0.55961949     0.28800
C571        C  0.00356534  0.04844518  0.54078589    -0.25100
C572        C  0.99220229  0.02479073  0.54419933    -0.24300
C573        C  0.97902922  0.01970453  0.56646406     0.40300
C574        C  0.97812460  0.03795711  0.58545215    -0.26800
O575        O  0.01304953  0.09006671  0.55549417    -0.58700
H576        H  0.01331937  0.05266752  0.52347796     0.15900
O577        O  0.96739792  0.99678816  0.56988314    -0.60100
H578        H  0.96848320  0.03362742  0.60280489     0.14400
H579        H  0.04636533  0.12372769  0.62738696     0.46200
H580        H  0.03154255  0.08776896  0.55764849     0.41600
H581        H  0.94901509  0.00029768  0.57031602     0.45000
H582        H  0.94122992  0.09308318  0.58942392     0.36500
C583        C  0.05080560  0.96784365  0.58006956    -0.27700
C584        C  0.07048696  0.98570002  0.57972124     0.01900
C585        C  0.07111311  0.00399659  0.56060937     0.30000
C586        C  0.05193518  0.00450435  0.54239252    -0.19500
C587        C  0.03195045  0.98706007  0.54314545    -0.28900
C588        C  0.03144384  0.96860866  0.56204395     0.44000
C589        C  0.08969412  0.98590098  0.59999023     0.05200
O590        O  0.09086909  0.02086373  0.55920147    -0.57400
H591        H  0.05270532  0.01842329  0.52755501     0.18100
O592        O  0.01217381  0.95120027  0.56290446    -0.64200
H593        H  0.05017030  0.95367771  0.59467625     0.16600
C594        C  0.09222497  0.00695785  0.61582891     0.28800
C595        C  0.11137245  0.00774856  0.63399731    -0.25100
C596        C  0.12795869  0.98746149  0.63712334    -0.24300
C597        C  0.12479475  0.96589678  0.62187428     0.40300
C598        C  0.10567251  0.96521928  0.60348036    -0.26800
O599        O  0.07609876  0.02694867  0.61360079    -0.58700
H600        H  0.11318749  0.02431055  0.64577567     0.15900
O601        O  0.14070616  0.94575632  0.62422425    -0.60100
H602        H  0.10371888  0.94881705  0.59149334     0.14400
H603        H  0.99964809  0.95831533  0.57460884     0.46200
H604        H  0.06081529  0.02201909  0.62315657     0.41600
H605        H  0.15486605  0.94933999  0.61262857     0.45000
H606        H  0.08367987  0.03739059  0.56385686     0.36500
C607        C  0.10694762  0.89230422  0.47742615    -0.27700
C608        C  0.09438429  0.89726812  0.49996733     0.01900
C609        C  0.10154067  0.88406041  0.52173547     0.30000
C610        C  0.12082400  0.86620375  0.52075555    -0.19500
C611        C  0.13360885  0.86109412  0.49822819    -0.28900
C612        C  0.12640426  0.87450493  0.47639750     0.44000
C613        C  0.07365222  0.91599463  0.50061762     0.05200
O614        O  0.08988317  0.88856407  0.54418299    -0.57400
H615        H  0.12580213  0.85642687  0.53790134     0.18100
O616        O  0.13773348  0.87005010  0.45379426    -0.64200
H617        H  0.10145872  0.90210302  0.46043028     0.16600
C618        C  0.07762023  0.94104045  0.49274415     0.28800
C619        C  0.05786270  0.95841912  0.49390962    -0.25100
C620        C  0.03389239  0.95110149  0.50248999    -0.24300
C621        C  0.02981986  0.92611202  0.51022823     0.40300
C622        C  0.04968416  0.90881708  0.50947031    -0.26800
O623        O  0.10080962  0.94875786  0.48414334    -0.58700
H624        H  0.06121969  0.97769230  0.48809494     0.15900
O625        O  0.00669756  0.91873273  0.51930734    -0.60100
H626        H  0.04629241  0.88965228  0.51560840     0.14400
H627        H  0.14991406  0.88416354  0.45156914     0.46200
H628        H  0.10947177  0.95645646  0.49887061     0.41600
H629        H  0.99973222  0.90666066  0.50679480     0.45000
H630        H  0.09915527  0.90309873  0.55163091     0.36500
C631        C  0.69530472  0.28185149  0.41647611    -0.27700
C632        C  0.67404576  0.28112734  0.40053690     0.01900
C633        C  0.65066995  0.28943899  0.40956254     0.30000
C634        C  0.64899162  0.29921838  0.43394050    -0.19500
C635        C  0.67053586  0.30114558  0.44963795    -0.28900
C636        C  0.69376292  0.29186222  0.44077166     0.44000
C637        C  0.67727060  0.27366560  0.37395999     0.05200
O638        O  0.62941134  0.28812245  0.39466483    -0.57400
H639        H  0.63084087  0.30591086  0.44033678     0.18100
O640        O  0.71536231  0.29356186  0.45512925    -0.64200
H641        H  0.71345852  0.27560529  0.40963804     0.16600
C642        C  0.67889785  0.29214466  0.35507895     0.28800
C643        C  0.68672729  0.28552325  0.33089849    -0.25100
C644        C  0.69298042  0.26057850  0.32520479    -0.24300
C645        C  0.68985201  0.24186094  0.34365519     0.40300
C646        C  0.68203711  0.24846798  0.36786998    -0.26800
O647        O  0.67445270  0.31695198  0.36052640    -0.58700
H648        H  0.68938420  0.30011795  0.31697628     0.15900
O649        O  0.69629644  0.21739694  0.33874854    -0.60100
H650        H  0.68102005  0.23412010  0.38227809     0.14400
H651        H  0.72304515  0.31008503  0.45081173     0.46200
H652        H  0.69114068  0.32407426  0.36556623     0.41600
H653        H  0.71412512  0.21587591  0.34446041     0.45000
H654        H  0.62779395  0.30508016  0.38709056     0.36500
C655        C  0.23744580  0.37243072  0.70867114    -0.27700
C656        C  0.26273365  0.37532029  0.70131767     0.01900
C657        C  0.27764193  0.35377823  0.69808621     0.30000
C658        C  0.26708544  0.32979930  0.70152786    -0.19500
C659        C  0.24159316  0.32663158  0.70825004    -0.28900
C660        C  0.22678804  0.34834435  0.71204020     0.44000
C661        C  0.27349941  0.40071972  0.69642504     0.05200
O662        O  0.30289193  0.35608269  0.69260431    -0.57400
H663        H  0.27912370  0.31360904  0.69924957     0.18100
O664        O  0.20209654  0.34635327  0.71953104    -0.64200
H665        H  0.22584744  0.38889637  0.71149296     0.16600
C666        C  0.28278887  0.40684265  0.67250673     0.28800
C667        C  0.29524444  0.42978581  0.66858353    -0.25100
C668        C  0.29840720  0.44729793  0.68816873    -0.24300
C669        C  0.28793193  0.44171924  0.71185035     0.40300
C670        C  0.27563107  0.41851562  0.71583572    -0.26800
O671        O  0.28022801  0.39024714  0.65290444    -0.58700
H672        H  0.30274838  0.43373731  0.65012363     0.15900
O673        O  0.29108655  0.45796385  0.73165693    -0.60100
H674        H  0.26853656  0.41403711  0.73434228     0.14400
H675        H  0.19192198  0.34723017  0.70384585     0.46200
H676        H  0.26327889  0.39360728  0.64559762     0.41600
H677        H  0.27541053  0.46808008  0.73196876     0.45000
H678        H  0.30451956  0.35025741  0.67501263     0.36500
C679        C  0.36665639  0.69175620  0.28316853    -0.27700
C680        C  0.38841098  0.69374546  0.26838272     0.01900
C681        C  0.38578710  0.70076096  0.24301302     0.30000
C682        C  0.36168226  0.70590597  0.23294219    -0.19500
C683        C  0.33985920  0.70431557  0.24786958    -0.28900
C684        C  0.34266564  0.69707357  0.27326294     0.44000
C685        C  0.41349127  0.68813101  0.27994341     0.05200
O686        O  0.40653697  0.70164210  0.22771814    -0.57400
H687        H  0.36014885  0.71138181  0.21341682     0.18100
O688        O  0.32214140  0.69520832  0.28874238    -0.64200
H689        H  0.36832268  0.68640547  0.30273246     0.16600
C690        C  0.43309027  0.70625351  0.28089542     0.28800
C691        C  0.45558829  0.70127485  0.29410339    -0.25100
C692        C  0.45882397  0.67846014  0.30704664    -0.24300
C693        C  0.43951358  0.65992551  0.30519954     0.40300
C694        C  0.41712685  0.66493490  0.29193560    -0.26800
O695        O  0.42990813  0.72941419  0.27013361    -0.58700
H696        H  0.47003179  0.71584259  0.29513662     0.15900
O697        O  0.44207145  0.63690736  0.31653889    -0.60100
H698        H  0.40232288  0.65070013  0.29128914     0.14400
H699        H  0.32172493  0.71140363  0.29800174     0.46200
H700        H  0.42594617  0.74080202  0.28427659     0.41600
H701        H  0.44931595  0.62582159  0.30351319     0.45000
H702        H  0.40899647  0.71966689  0.22350944     0.36500
C703        C  0.70825623  0.37174312  0.29606645    -0.27700
C704        C  0.69207735  0.38464907  0.27967216     0.01900
C705        C  0.68192056  0.37171409  0.25869457     0.30000
C706        C  0.68843699  0.34641801  0.25425980    -0.19500
C707        C  0.70517187  0.33369781  0.27043961    -0.28900
C708        C  0.71475683  0.34665332  0.29174458     0.44000
C709        C  0.68609643  0.41145306  0.28538373     0.05200
O710        O  0.66698185  0.38410505  0.24161533    -0.57400
H711        H  0.68119889  0.33710656  0.23756102     0.18100
O712        O  0.73115454  0.33520654  0.30818452    -0.64200
H713        H  0.71599763  0.38123416  0.31245905     0.16600
C714        C  0.66105361  0.41916901  0.28954988     0.28800
C715        C  0.65630492  0.44320706  0.29925286    -0.25100
C716        C  0.67620647  0.46008044  0.30505248    -0.24300
C717        C  0.70118277  0.45289263  0.29953034     0.40300
C718        C  0.70593810  0.42874249  0.28997578    -0.26800
O719        O  0.64112752  0.40290459  0.28558742    -0.58700
H720        H  0.63692355  0.44833016  0.30312005     0.15900
O721        O  0.72125355  0.46841912  0.30533918    -0.60100
H722        H  0.72535109  0.42312172  0.28702619     0.14400
H723        H  0.72148050  0.33265981  0.32385783     0.46200
H724        H  0.63947673  0.39326349  0.30142789     0.41600
H725        H  0.72592248  0.47658538  0.28928458     0.45000
H726        H  0.65006411  0.37598050  0.24268426     0.36500
C727        C  0.24500375  0.71069209  0.38004500    -0.27700
C728        C  0.26802598  0.69803682  0.38361038     0.01900
C729        C  0.28164650  0.69081622  0.36209899     0.30000
C730        C  0.27219264  0.69591201  0.33793199    -0.19500
C731        C  0.24932849  0.70880082  0.33428493    -0.28900
C732        C  0.23576564  0.71627029  0.35581804     0.44000
C733        C  0.27770564  0.69215671  0.40957923     0.05200
O734        O  0.30463278  0.67922225  0.36442699    -0.57400
H735        H  0.28325006  0.69022613  0.32193091     0.18100
O736        O  0.21390865  0.72983203  0.35355794    -0.64200
H737        H  0.23400439  0.71619774  0.39614324     0.16600
C738        C  0.27905548  0.71053617  0.42876245     0.28800
C739        C  0.28989208  0.70471249  0.45231667    -0.25100
C740        C  0.29961834  0.68068709  0.45737065    -0.24300
C741        C  0.29726266  0.66204664  0.43848567     0.40300
C742        C  0.28639128  0.66783155  0.41509367    -0.26800
O743        O  0.27142928  0.73471131  0.42412939    -0.58700
H744        H  0.29151867  0.71942411  0.46633740     0.15900
O745        O  0.30582071  0.63806331  0.44245943    -0.60100
H746        H  0.28493483  0.65313064  0.40104685     0.14400
H747        H  0.20005936  0.71713316  0.35367366     0.46200
H748        H  0.25867982  0.73846442  0.43711883     0.41600
H749        H  0.29093542  0.62846576  0.44859353     0.45000
H750        H  0.31733623  0.69306573  0.36419401     0.36500
C751        C  0.42447835  0.26710815  0.70615793    -0.27700
C752        C  0.40550516  0.26882818  0.68756206     0.01900
C753        C  0.41104582  0.28209160  0.66533143     0.30000
C754        C  0.43443509  0.29435246  0.66260335    -0.19500
C755        C  0.45313299  0.29347790  0.68158249    -0.28900
C756        C  0.44819080  0.27888946  0.70316712     0.44000
C757        C  0.37969202  0.25798346  0.69205769     0.05200
O758        O  0.39356557  0.28358772  0.64622955    -0.57400
H759        H  0.43776299  0.30490715  0.64554286     0.18100
O760        O  0.46573726  0.27718064  0.72216447    -0.64200
H761        H  0.42063828  0.25731351  0.72353725     0.16600
C762        C  0.37622604  0.23341900  0.70159021     0.28800
C763        C  0.35187252  0.22445967  0.70731967    -0.25100
C764        C  0.33038020  0.23943703  0.70335031    -0.24300
C765        C  0.33381382  0.26366898  0.69286936     0.40300
C766        C  0.35818372  0.27276111  0.68762999    -0.26800
O767        O  0.39653082  0.21801541  0.70564285    -0.58700
H768        H  0.34990650  0.20584497  0.71539451     0.15900
O769        O  0.31365257  0.27923496  0.68874931    -0.60100
H770        H  0.36027055  0.29183876  0.68073290     0.14400
H771        H  0.47449982  0.26102051  0.71924828     0.46200
H772        H  0.40077284  0.21117014  0.68889708     0.41600
H773        H  0.30855434  0.27627514  0.67103741     0.45000
H774        H  0.39615964  0.26827482  0.63594886     0.36500
C775        C  0.39226987  0.60412675  0.52717083    -0.27700
C776        C  0.40046806  0.59342590  0.50468613     0.01900
C777        C  0.39049686  0.60216518  0.48180489     0.30000
C778        C  0.37241439  0.62133829  0.48162192    -0.19500
C779        C  0.36407145  0.63225522  0.50415701    -0.28900
C780        C  0.37431310  0.62335320  0.52711182     0.44000
C781        C  0.42021763  0.57386289  0.50536713     0.05200
O782        O  0.39855673  0.59227908  0.45951223    -0.57400
H783        H  0.36514710  0.62783905  0.46372331     0.18100
O784        O  0.36645359  0.63270723  0.54971181    -0.64200
H785        H  0.39985448  0.59749833  0.54490918     0.16600
C786        C  0.44502350  0.58007714  0.51299618     0.28800
C787        C  0.46356209  0.56151774  0.51385829    -0.25100
C788        C  0.45774118  0.53651754  0.50745052    -0.24300
C789        C  0.43292496  0.53022393  0.49977224     0.40300
C790        C  0.41432057  0.54889478  0.49871640    -0.26800
O791        O  0.45129811  0.60427573  0.51970989    -0.58700
H792        H  0.48253154  0.56655641  0.51990317     0.15900
O793        O  0.42671142  0.50593008  0.49335999    -0.60100
H794        H  0.39524494  0.54389278  0.49288347     0.14400
H795        H  0.37944247  0.64541834  0.55460826     0.46200
H796        H  0.45546061  0.61289241  0.50374857     0.41600
H797        H  0.43050945  0.50457821  0.47522909     0.45000
H798        H  0.41303828  0.60305225  0.45450311     0.36500
C799        C  0.43920789  0.51408820  0.58386202    -0.27700
C800        C  0.42453651  0.49205095  0.58603616     0.01900
C801        C  0.42753094  0.47263146  0.56831066     0.30000
C802        C  0.44417160  0.47588013  0.54832486    -0.19500
C803        C  0.45923872  0.49767720  0.54652887    -0.28900
C804        C  0.45685192  0.51679079  0.56460072     0.44000
C805        C  0.40552752  0.48998539  0.60624243     0.05200
O806        O  0.41476167  0.45017963  0.57071706    -0.57400
H807        H  0.44614327  0.46087052  0.53472377     0.18100
O808        O  0.47294639  0.53723020  0.56452648    -0.64200
H809        H  0.43709749  0.52929735  0.59719064     0.16600
C810        C  0.41157889  0.49639280  0.63129491     0.28800
C811        C  0.39271715  0.49588132  0.64957488    -0.25100
C812        C  0.36791310  0.48860507  0.64332519    -0.24300
C813        C  0.36191483  0.48183782  0.61847855     0.40300
C814        C  0.38061670  0.48268787  0.60012729    -0.26800
O815        O  0.43599663  0.50232271  0.63820025    -0.58700
H816        H  0.39750601  0.50101354  0.66873213     0.15900
O817        O  0.33763513  0.47523914  0.61177635    -0.60100
H818        H  0.37545081  0.47826476  0.58090002     0.14400
H819        H  0.46202914  0.55231914  0.56491160     0.46200
H820        H  0.43584735  0.52046788  0.64259654     0.41600
H821        H  0.32951878  0.49118760  0.60655734     0.45000
H822        H  0.42663614  0.43893850  0.57975039     0.36500
C823        C  0.51308918  0.57824821  0.45466524    -0.27700
C824        C  0.49668283  0.57678444  0.43385063     0.01900
C825        C  0.48043199  0.55572439  0.43123525     0.30000
C826        C  0.48057275  0.53675130  0.44949314    -0.19500
C827        C  0.49695769  0.53837973  0.47023894    -0.28900
C828        C  0.51329563  0.55922897  0.47279113     0.44000
C829        C  0.49755919  0.59691957  0.41460713     0.05200
O830        O  0.46550983  0.55286487  0.41020929    -0.57400
H831        H  0.46821496  0.52051295  0.44726484     0.18100
O832        O  0.52978832  0.56084660  0.49276371    -0.64200
H833        H  0.52578878  0.59423193  0.45687772     0.16600
C834        C  0.47560258  0.60982443  0.40708307     0.28800
C835        C  0.47700486  0.62837734  0.38849319    -0.25100
C836        C  0.50028910  0.63498944  0.37766252    -0.24300
C837        C  0.52237957  0.62251473  0.38574291     0.40300
C838        C  0.52086089  0.60366518  0.40400096    -0.26800
O839        O  0.45278297  0.60486945  0.41816888    -0.58700
H840        H  0.45985286  0.63794854  0.38286144     0.15900
O841        O  0.54551155  0.62818846  0.37562058    -0.60100
H842        H  0.53795859  0.59401236  0.40967619     0.14400
H843        H  0.52377704  0.57506818  0.50312095     0.46200
H844        H  0.45256242  0.61574282  0.43329330     0.41600
H845        H  0.54721843  0.61664260  0.36111461     0.45000
H846        H  0.44782647  0.55413199  0.41613692     0.36500
C847        C  0.57764976  0.50681069  0.45238710    -0.27700
C848        C  0.56947614  0.50114064  0.42782603     0.01900
C849        C  0.54391197  0.49431099  0.42377776     0.30000
C850        C  0.52707097  0.49358532  0.44394365    -0.19500
C851        C  0.53515573  0.49994303  0.46831837    -0.28900
C852        C  0.56067569  0.50653730  0.47245664     0.44000
C853        C  0.58780495  0.50251303  0.40673640     0.05200
O854        O  0.53507700  0.48868150  0.40014902    -0.57400
H855        H  0.50750890  0.48826073  0.44053899     0.18100
O856        O  0.56917942  0.51267267  0.49607255    -0.64200
H857        H  0.59730821  0.51153778  0.45605581     0.16600
C858        C  0.60328373  0.52394154  0.40333166     0.28800
C859        C  0.62151051  0.52433585  0.38438493    -0.25100
C860        C  0.62476488  0.50359019  0.36831344    -0.24300
C861        C  0.60829216  0.48262068  0.37095986     0.40300
C862        C  0.59032120  0.48211459  0.39018809    -0.26800
O863        O  0.60017430  0.54494025  0.41797023    -0.58700
H864        H  0.63330979  0.54098982  0.38255308     0.15900
O865        O  0.60970450  0.46228332  0.35518944    -0.60100
H866        H  0.57856790  0.46546996  0.39241663     0.14400
H867        H  0.57118920  0.53124409  0.49604173     0.46200
H868        H  0.61534362  0.54576439  0.42903221     0.41600
H869        H  0.59872804  0.46652557  0.34063955     0.45000
H870        H  0.53001525  0.50505551  0.39281687     0.36500
C871        C  0.58659916  0.37960283  0.49955252    -0.27700
C872        C  0.59389686  0.40456044  0.50481352     0.01900
C873        C  0.61980041  0.41041939  0.50804337     0.30000
C874        C  0.63784512  0.39146081  0.50597394    -0.19500
C875        C  0.63048988  0.36679127  0.49981290    -0.28900
C876        C  0.60472292  0.36089419  0.49653174     0.44000
C877        C  0.57440018  0.42437047  0.50594038     0.05200
O878        O  0.62773815  0.43465395  0.51264895    -0.57400
H879        H  0.65770152  0.39615573  0.50849698     0.18100
O880        O  0.59704267  0.33671019  0.49131258    -0.64200
H881        H  0.56675778  0.37462965  0.49757350     0.16600
C882        C  0.55614579  0.42657834  0.48665003     0.28800
C883        C  0.53760934  0.44500187  0.48808109    -0.25100
C884        C  0.53751996  0.46218590  0.50801265    -0.24300
C885        C  0.55606067  0.46046131  0.52703733     0.40300
C886        C  0.57404307  0.44133258  0.52616746    -0.26800
O887        O  0.55646981  0.41104920  0.46608945    -0.58700
H888        H  0.52337294  0.44610427  0.47338727     0.15900
O889        O  0.55661526  0.47725541  0.54658493    -0.60100
H890        H  0.58777167  0.43980369  0.54128370     0.14400
H891        H  0.59493469  0.33608893  0.47281003     0.46200
H892        H  0.56854850  0.41907632  0.45433830     0.41600
H893        H  0.56933107  0.49019950  0.54187339     0.45000
H894        H  0.62822716  0.44289375  0.49596101     0.36500
C895        C  0.50311140  0.45072548  0.59235484    -0.27700
C896        C  0.49860911  0.42529118  0.58646438     0.01900
C897        C  0.49528480  0.41834810  0.56107623     0.30000
C898        C  0.49590808  0.43666474  0.54221726    -0.19500
C899        C  0.50027123  0.46207452  0.54811900    -0.28900
C900        C  0.50424509  0.46899621  0.57339880     0.44000
C901        C  0.49727742  0.40603944  0.60672276     0.05200
O902        O  0.49138904  0.39365192  0.55447618    -0.57400
H903        H  0.49269813  0.43107259  0.52289092     0.18100
O904        O  0.50869695  0.49368251  0.57973344    -0.64200
H905        H  0.50547665  0.45651510  0.61172751     0.16600
C906        C  0.51696335  0.40333722  0.62446090     0.28800
C907        C  0.51617035  0.38363822  0.64196238    -0.25100
C908        C  0.49576109  0.36640059  0.64243671    -0.24300
C909        C  0.47551147  0.36992146  0.62528859     0.40300
C910        C  0.47644853  0.38951890  0.60773504    -0.26800
O911        O  0.53777064  0.41894702  0.62391800    -0.58700
H912        H  0.53190128  0.38170927  0.65495063     0.15900
O913        O  0.45508030  0.35383891  0.62473489    -0.60100
H914        H  0.46087887  0.39162559  0.59456572     0.14400
H915        H  0.52692975  0.49471232  0.58414382     0.46200
H916        H  0.53587286  0.43041187  0.63846649     0.41600
H917        H  0.44209680  0.36203055  0.63521439     0.45000
H918        H  0.50855771  0.38650731  0.55274487     0.36500
C919        C  0.76295991  0.29979193  0.07199135    -0.27700
C920        C  0.78180644  0.29637627  0.09037054     0.01900
C921        C  0.80701549  0.30251924  0.08476533     0.30000
C922        C  0.81305658  0.31268409  0.06134075    -0.19500
C923        C  0.79423033  0.31669997  0.04297773    -0.28900
C924        C  0.76905933  0.30952617  0.04826864     0.44000
C925        C  0.77500981  0.28757591  0.11580499     0.05200
O926        O  0.82582494  0.29911200  0.10229071    -0.57400
H927        H  0.83258342  0.31772881  0.05765088     0.18100
O928        O  0.75007666  0.31329036  0.03101951    -0.64200
H929        H  0.74342942  0.29522744  0.07619035     0.16600
C930        C  0.76407391  0.30411361  0.13310299     0.28800
C931        C  0.75799376  0.29569712  0.15723191    -0.25100
C932        C  0.76236850  0.27063211  0.16455534    -0.24300
C933        C  0.77387433  0.25422379  0.14717437     0.40300
C934        C  0.78014114  0.26280066  0.12309748    -0.26800
O935        O  0.75953258  0.32866548  0.12665696    -0.58700
H936        H  0.74912213  0.30871998  0.16996651     0.15900
O937        O  0.77829868  0.22952534  0.15308360    -0.60100
H938        H  0.78871953  0.24995837  0.10992027     0.14400
H939        H  0.74798434  0.29693212  0.02223537     0.46200
H940        H  0.74202615  0.32868245  0.11982091     0.41600
H941        H  0.79550646  0.22940825  0.16061865     0.45000
H942        H  0.82674446  0.31513734  0.11182698     0.36500
C943        C  0.12864067  0.29218675  0.79371955    -0.27700
C944        C  0.11587647  0.27550065  0.80951277     0.01900
C945        C  0.12901809  0.25494964  0.81988928     0.30000
C946        C  0.15407463  0.25011943  0.81256245    -0.19500
C947        C  0.16631465  0.26597908  0.79529506    -0.28900
C948        C  0.15360995  0.28778896  0.78677559     0.44000
C949        C  0.08898521  0.28057261  0.81505752     0.05200
O950        O  0.11709297  0.23876434  0.83605009    -0.57400
H951        H  0.16333768  0.23326595  0.81924668     0.18100
O952        O  0.16534677  0.30476835  0.77118781    -0.64200
H953        H  0.11900602  0.30856947  0.78635652     0.16600
C954        C  0.08233481  0.29194535  0.83777041     0.28800
C955        C  0.05775906  0.30083024  0.84113372    -0.25100
C956        C  0.03932004  0.29898261  0.82188251    -0.24300
C957        C  0.04579442  0.28653201  0.79942737     0.40300
C958        C  0.07052399  0.27764676  0.79611401    -0.26800
O959        O  0.10009785  0.29560849  0.85635885    -0.58700
H960        H  0.05347240  0.31005022  0.85870543     0.15900
O961        O  0.02876612  0.28437873  0.77998046    -0.60100
H962        H  0.07559677  0.26926822  0.77832505     0.14400
H963        H  0.15758938  0.30206594  0.75437392     0.46200
H964        H  0.10833392  0.31196091  0.85238446     0.41600
H965        H  0.02029314  0.26784791  0.78247674     0.45000
H966        H  0.12143932  0.24509351  0.85306504     0.36500
C967        C  0.77194807  0.36604478  0.21347514    -0.27700
C968        C  0.79786040  0.37117190  0.21495734     0.01900
C969        C  0.81447281  0.35177808  0.22221232     0.30000
C970        C  0.80483660  0.32764562  0.22807195    -0.19500
C971        C  0.77876301  0.32239816  0.22605378    -0.28900
C972        C  0.76236102  0.34210866  0.21870311     0.44000
C973        C  0.80674230  0.39657196  0.20716754     0.05200
O974        O  0.83993665  0.35652943  0.22451608    -0.57400
H975        H  0.81772818  0.31309361  0.23416798     0.18100
O976        O  0.73659982  0.33871792  0.21797119    -0.64200
H977        H  0.75894466  0.38073447  0.20790539     0.16600
C978        C  0.82093151  0.39950307  0.18520251     0.28800
C979        C  0.82501518  0.42350962  0.17519538    -0.25100
C980        C  0.81487665  0.44521507  0.18651442    -0.24300
C981        C  0.80168655  0.44231914  0.20927453     0.40300
C982        C  0.79750135  0.41815125  0.21924134    -0.26800
O983        O  0.82969697  0.37889400  0.17252503    -0.58700
H984        H  0.83539208  0.42484694  0.15781901     0.15900
O985        O  0.79220830  0.46276704  0.22163677    -0.60100
H986        H  0.78633762  0.41615175  0.23609884     0.14400
H987        H  0.73197616  0.33790836  0.19993450     0.46200
H988        H  0.81558230  0.37360283  0.16126796     0.41600
H989        H  0.80619552  0.46873079  0.23270357     0.45000
H990        H  0.84780287  0.34782585  0.21011977     0.36500
C991        C  0.08208350  0.70127394  0.22116394    -0.27700
C992        C  0.10148838  0.68379330  0.21763464     0.01900
C993        C  0.09613717  0.66127856  0.20483975     0.30000
C994        C  0.07185477  0.65671937  0.19511164    -0.19500
C995        C  0.05246212  0.67462526  0.19749138    -0.28900
C996        C  0.05767738  0.69681325  0.21137608     0.44000
C997        C  0.12804981  0.69114612  0.22295896     0.05200
O998        O  0.11485351  0.64401734  0.20091189    -0.57400
H999        H  0.06854264  0.63936114  0.18488655     0.18100
O1000       O  0.03968246  0.71501345  0.21416849    -0.64200
H1001       H  0.08619423  0.71897773  0.23052221     0.16600
C1002       C  0.14204471  0.70297540  0.20402415     0.28800
C1003       C  0.16667916  0.71120233  0.20886318    -0.25100
C1004       C  0.17816651  0.70772720  0.23249584    -0.24300
C1005       C  0.16439301  0.69524070  0.25141201     0.40300
C1006       C  0.13941367  0.68693471  0.24651802    -0.26800
O1007       O  0.13149573  0.70714376  0.18079732    -0.58700
H1008       H  0.17646048  0.72153262  0.19427754     0.15900
O1009       O  0.17448768  0.69248622  0.27503171    -0.60100
H1010       H  0.12869170  0.67787848  0.26126617     0.14400
H1011       H  0.03194660  0.71161781  0.23072948     0.46200
H1012       H  0.12401623  0.72417173  0.18178271     0.41600
H1013       H  0.16827352  0.70709611  0.28472513     0.45000
H1014       H  0.12221016  0.64851053  0.18443028     0.36500
C1015       C  0.21456794  0.41867605  0.78765350    -0.27700
C1016       C  0.21956235  0.40245702  0.80788541     0.01900
C1017       C  0.21238412  0.40974262  0.83219859     0.30000
C1018       C  0.19917385  0.43223924  0.83574058    -0.19500
C1019       C  0.19313371  0.44791737  0.81534123    -0.28900
C1020       C  0.20159617  0.44130357  0.79123514     0.44000
C1021       C  0.22989409  0.37704450  0.80275905     0.05200
O1022       O  0.21857034  0.39515242  0.85257206    -0.57400
H1023       H  0.19341813  0.43732454  0.85453088     0.18100
O1024       O  0.19568465  0.45583259  0.77078552    -0.64200
H1025       H  0.21980508  0.41325466  0.76879738     0.16600
C1026       C  0.21569094  0.35531118  0.80864169     0.28800
C1027       C  0.22336453  0.33175055  0.79999171    -0.25100
C1028       C  0.24487107  0.32927297  0.78480669    -0.24300
C1029       C  0.25990660  0.35085067  0.78014399     0.40300
C1030       C  0.25230763  0.37447550  0.78902604    -0.26800
O1031       O  0.19319443  0.35707597  0.82116471    -0.58700
H1032       H  0.21136032  0.31557086  0.80377734     0.15900
O1033       O  0.28071784  0.34956090  0.76502850    -0.60100
H1034       H  0.26331568  0.39104213  0.78415502     0.14400
H1035       H  0.21119353  0.46585351  0.76736960     0.46200
H1036       H  0.18019010  0.35976249  0.80793294     0.41600
H1037       H  0.29496064  0.34537821  0.77646501     0.45000
H1038       H  0.20226248  0.38900348  0.85943237     0.36500
C1039       C  0.20192983  0.66489275  0.08920252    -0.27700
C1040       C  0.21349064  0.68791904  0.09546315     0.01900
C1041       C  0.21457273  0.70692382  0.07688888     0.30000
C1042       C  0.20367460  0.70289418  0.05293925    -0.19500
C1043       C  0.19129152  0.68008121  0.04698657    -0.28900
C1044       C  0.19107384  0.66081832  0.06544123     0.44000
C1045       C  0.22362344  0.69198847  0.12157443     0.05200
O1046       O  0.22557323  0.72981834  0.08215044    -0.57400
H1047       H  0.20420723  0.71799717  0.03930253     0.18100
O1048       O  0.18014918  0.63777784  0.06064440    -0.64200
H1049       H  0.20127724  0.64983764  0.10289884     0.16600
C1050       C  0.20844436  0.68730377  0.14283598     0.28800
C1051       C  0.21765865  0.69276181  0.16707779    -0.25100
C1052       C  0.24167556  0.70357982  0.17076928    -0.24300
C1053       C  0.25736949  0.70698988  0.14972231     0.40300
C1054       C  0.24841240  0.70109500  0.12547165    -0.26800
O1055       O  0.18396245  0.67890495  0.14007591    -0.58700
H1056       H  0.20534044  0.69008659  0.18293826     0.15900
O1057       O  0.28073547  0.71813683  0.15240629    -0.60100
H1058       H  0.26060258  0.70448855  0.10956255     0.14400
H1059       H  0.19384408  0.62744249  0.05345942     0.46200
H1060       H  0.17361940  0.69434886  0.13878126     0.41600
H1061       H  0.29227954  0.70428053  0.15713875     0.45000
H1062       H  0.21181649  0.74019054  0.08917171     0.36500
C1063       C  0.07643714  0.48623957  0.94426740    -0.27700
C1064       C  0.06922664  0.49290295  0.91983944     0.01900
C1065       C  0.04438948  0.50092754  0.91497266     0.30000
C1066       C  0.02687164  0.50168621  0.93446832    -0.19500
C1067       C  0.03401441  0.49482174  0.95891592    -0.28900
C1068       C  0.05897620  0.48715087  0.96381123     0.44000
C1069       C  0.08798228  0.49185983  0.89965033     0.05200
O1070       O  0.03698556  0.50745611  0.89113748    -0.57400
H1071       H  0.00769451  0.50768773  0.93057800     0.18100
O1072       O  0.06642457  0.48074331  0.98766729    -0.64200
H1073       H  0.09566138  0.48038512  0.94816552     0.16600
C1074       C  0.09861063  0.51411072  0.89011283     0.28800
C1075       C  0.11651793  0.51289922  0.87111146    -0.25100
C1076       C  0.12444848  0.48957696  0.86146482    -0.24300
C1077       C  0.11375373  0.46722586  0.87120256     0.40300
C1078       C  0.09570571  0.46851728  0.89027238    -0.26800
O1079       O  0.09176196  0.53714136  0.89940703    -0.58700
H1080       H  0.12451025  0.53040799  0.86424291     0.15900
O1081       O  0.12063358  0.44409729  0.86223872    -0.60100
H1082       H  0.08757721  0.45128435  0.89767387     0.14400
H1083       H  0.06909379  0.46230341  0.98728364     0.46200
H1084       H  0.10257161  0.53979597  0.91449142     0.41600
H1085       H  0.10852924  0.44037665  0.84838458     0.45000
H1086       H  0.03923098  0.52598826  0.89029305     0.36500
C1087       C  0.07444898  0.55419555  0.01371368    -0.27700
C1088       C  0.07166378  0.57412332  0.99663553     0.01900
C1089       C  0.05153785  0.57346893  0.97913697     0.30000
C1090       C  0.03446733  0.55325047  0.97911048    -0.19500
C1091       C  0.03666444  0.53399725  0.99692163    -0.28900
C1092       C  0.05686863  0.53438015  0.01420406     0.44000
C1093       C  0.08990972  0.59539939  0.99725791     0.05200
O1094       O  0.04799861  0.59281312  0.96247309    -0.57400
H1095       H  0.01884199  0.55306676  0.96581106     0.18100
O1096       O  0.05979513  0.51515568  0.03116067    -0.64200
H1097       H  0.09022384  0.55406445  0.02681607     0.16600
C1098       C  0.09522839  0.60835619  0.01977336     0.28800
C1099       C  0.11326278  0.62778428  0.02014871    -0.25100
C1100       C  0.12610719  0.63476864  0.99822574    -0.24300
C1101       C  0.12037951  0.62206299  0.97557047     0.40300
C1102       C  0.10256269  0.60244299  0.97529404    -0.26800
O1103       O  0.08221935  0.60273701  0.04127380    -0.58700
H1104       H  0.11706217  0.63753439  0.03766009     0.15900
O1105       O  0.13297634  0.62773577  0.95386459    -0.60100
H1106       H  0.09894347  0.59238239  0.95791756     0.14400
H1107       H  0.05796543  0.52294142  0.04794267     0.46200
H1108       H  0.09445694  0.59384160  0.05225603     0.41600
H1109       H  0.12147616  0.63896067  0.94434766     0.45000
H1110       H  0.03609375  0.60438145  0.97083910     0.36500
C1111       C  0.99415984  0.57737572  0.05199585    -0.27700
C1112       C  0.00123323  0.57016487  0.07637199     0.01900
C1113       C  0.00710409  0.54484984  0.08125438     0.30000
C1114       C  0.00645691  0.52727006  0.06169799    -0.19500
C1115       C  0.99987540  0.53458911  0.03723489    -0.28900
C1116       C  0.99347308  0.55976588  0.03242554     0.44000
C1117       C  0.00207933  0.58926653  0.09654486     0.05200
O1118       O  0.01218259  0.53697178  0.10528122    -0.57400
H1119       H  0.01092189  0.50779496  0.06563578     0.18100
O1120       O  0.98539493  0.56690985  0.00895333    -0.64200
H1121       H  0.98918599  0.59674626  0.04813762     0.16600
C1122       C  0.02466312  0.59461483  0.10971656     0.28800
C1123       C  0.02516442  0.61332502  0.12820382    -0.25100
C1124       C  0.00335911  0.62724904  0.13376312    -0.24300
C1125       C  0.98068281  0.62169302  0.12042871     0.40300
C1126       C  0.98026083  0.60288336  0.10205620    -0.26800
O1127       O  0.04648265  0.58195998  0.10436675    -0.58700
H1128       H  0.04285434  0.61710927  0.13795275     0.15900
O1129       O  0.95864529  0.63414907  0.12534749    -0.60100
H1130       H  0.96275035  0.59887436  0.09204200     0.14400
H1131       H  0.99697807  0.58066939  0.00367197     0.46200
H1132       H  0.05379224  0.59080985  0.08969739     0.41600
H1133       H  0.95773326  0.64774487  0.11262931     0.45000
H1134       H  0.03042183  0.53274157  0.10553604     0.36500
C1135       C  0.88408819  0.47487419  0.09071170    -0.27700
C1136       C  0.89453347  0.49843805  0.08480328     0.01900
C1137       C  0.88430983  0.52029676  0.09540655     0.30000
C1138       C  0.86468758  0.51825971  0.11268900    -0.19500
C1139       C  0.85519354  0.49452868  0.11988077    -0.28900
C1140       C  0.86467939  0.47274191  0.10820115     0.44000
C1141       C  0.91671252  0.49974484  0.06830374     0.05200
O1142       O  0.89391856  0.54364998  0.08966584    -0.57400
H1143       H  0.85763558  0.53530840  0.12120934     0.18100
O1144       O  0.85496352  0.44931831  0.11345126    -0.64200
H1145       H  0.89136794  0.45797807  0.08204909     0.16600
C1146       C  0.93856185  0.48576472  0.07400414     0.28800
C1147       C  0.95876505  0.48571157  0.05736944    -0.25100
C1148       C  0.95767972  0.50000714  0.03537481    -0.24300
C1149       C  0.93640826  0.51481387  0.03012227     0.40300
C1150       C  0.91591505  0.51445676  0.04648265    -0.26800
O1151       O  0.94017591  0.47185585  0.09563008    -0.58700
H1152       H  0.97517247  0.47427193  0.06141761     0.15900
O1153       O  0.93505207  0.52858636  0.00839688    -0.60100
H1154       H  0.89917579  0.52518633  0.04185186     0.14400
H1155       H  0.86763417  0.44130206  0.12463396     0.46200
H1156       H  0.94521773  0.48405566  0.10888661     0.41600
H1157       H  0.93804694  0.54628764  0.01359581     0.45000
H1158       H  0.90833222  0.54627619  0.10143829     0.36500
C1159       C  0.93502394  0.42211015  0.01070186    -0.27700
C1160       C  0.91248691  0.42898982  0.99846557     0.01900
C1161       C  0.91102251  0.45259586  0.98654761     0.30000
C1162       C  0.93217714  0.46855884  0.98632656    -0.19500
C1163       C  0.95475987  0.46142812  0.99811878    -0.28900
C1164       C  0.95614217  0.43821184  0.01060261     0.44000
C1165       C  0.89061244  0.41143124  0.99848237     0.05200
O1166       O  0.88859790  0.46071131  0.97634221    -0.57400
H1167       H  0.93089489  0.48672211  0.97719334     0.18100
O1168       O  0.97770895  0.43170654  0.02349548    -0.64200
H1169       H  0.93627077  0.40416184  0.02026493     0.16600
C1170       C  0.87893401  0.40373584  0.97589475     0.28800
C1171       C  0.85844334  0.38697648  0.97635774    -0.25100
C1172       C  0.84941398  0.37713689  0.99915024    -0.24300
C1173       C  0.86127432  0.38488748  0.02180319     0.40300
C1174       C  0.88172864  0.40176851  0.02127247    -0.26800
O1175       O  0.88769151  0.41208681  0.95318078    -0.58700
H1176       H  0.84991301  0.38138447  0.95864244     0.15900
O1177       O  0.85326828  0.37606146  0.04460156    -0.60100
H1178       H  0.89059538  0.40750597  0.03879816     0.14400
H1179       H  0.98334972  0.41565812  0.01596635     0.46200
H1180       H  0.90216240  0.40106691  0.94919400     0.41600
H1181       H  0.84075154  0.38851454  0.05046500     0.45000
H1182       H  0.89168438  0.46252893  0.95809584     0.36500
C1183       C  0.00753274  0.41757327  0.94422796    -0.27700
C1184       C  0.99009491  0.41918122  0.92428545     0.01900
C1185       C  0.97386246  0.44004486  0.92283478     0.30000
C1186       C  0.97560371  0.45909917  0.94091463    -0.19500
C1187       C  0.99342813  0.45762051  0.96048283    -0.28900
C1188       C  0.00928551  0.43663818  0.96223147     0.44000
C1189       C  0.99009276  0.39963523  0.90448624     0.05200
O1190       O  0.95668728  0.44225839  0.90354599    -0.57400
H1191       H  0.96327485  0.47523446  0.93952246     0.18100
O1192       O  0.02693190  0.43499660  0.98116435    -0.64200
H1193       H  0.01999197  0.40154377  0.94572564     0.16600
C1194       C  0.01272039  0.39354342  0.89220584     0.28800
C1195       C  0.01279675  0.37472885  0.87394440    -0.25100
C1196       C  0.99039445  0.36198793  0.86714019    -0.24300
C1197       C  0.96765148  0.36817337  0.87930311     0.40300
C1198       C  0.96763852  0.38687549  0.89785461    -0.26800
O1199       O  0.03487777  0.40609471  0.89772805    -0.58700
H1200       H  0.03043663  0.37045519  0.86470696     0.15900
O1201       O  0.94544936  0.35582774  0.87354835    -0.60100
H1202       H  0.95013365  0.39119444  0.90732022     0.14400
H1203       H  0.02088717  0.42130300  0.99227304     0.46200
H1204       H  0.03436047  0.42170615  0.88754446     0.41600
H1205       H  0.94541087  0.34055994  0.88424831     0.45000
H1206       H  0.96578872  0.45151294  0.89017016     0.36500
C1207       C  0.29696808  0.84033525  0.08249521    -0.27700
C1208       C  0.28976481  0.81554050  0.08794390     0.01900
C1209       C  0.28938612  0.79752569  0.06851013     0.30000
C1210       C  0.29773686  0.80409485  0.04437868    -0.19500
C1211       C  0.30709409  0.82842539  0.03944882    -0.28900
C1212       C  0.30554242  0.84687889  0.05854303     0.44000
C1213       C  0.28564904  0.80811084  0.11446002     0.05200
O1214       O  0.28136420  0.77334478  0.07313891    -0.57400
H1215       H  0.29839156  0.78967998  0.03001802     0.18100
O1216       O  0.31344836  0.87117036  0.05437561    -0.64200
H1217       H  0.29716756  0.85440835  0.09722686     0.16600
C1218       C  0.30393146  0.79373871  0.12713431     0.28800
C1219       C  0.30013357  0.78657171  0.15210183    -0.25100
C1220       C  0.27804683  0.79329995  0.16494327    -0.24300
C1221       C  0.26005796  0.80842497  0.15245665     0.40300
C1222       C  0.26407357  0.81592275  0.12745761    -0.26800
O1223       O  0.32581770  0.78696732  0.11530387    -0.58700
H1224       H  0.31426936  0.77501542  0.16124446     0.15900
O1225       O  0.23800065  0.81501941  0.16402396    -0.60100
H1226       H  0.24999167  0.82724899  0.11796568     0.14400
H1227       H  0.29801355  0.88032408  0.04913815     0.46200
H1228       H  0.32392721  0.76872159  0.11176708     0.41600
H1229       H  0.22599821  0.80098972  0.16044759     0.45000
H1230       H  0.29689004  0.76299898  0.07318449     0.36500
C1231       C  0.42093365  0.83714461  0.21766126    -0.27700
C1232       C  0.41570414  0.81225205  0.22502034     0.01900
C1233       C  0.43366079  0.79347512  0.21992065     0.30000
C1234       C  0.45613459  0.79969471  0.20751264    -0.19500
C1235       C  0.46100501  0.82440380  0.19944013    -0.28900
C1236       C  0.44326084  0.84328966  0.20495586     0.44000
C1237       C  0.39039613  0.80562872  0.23533859     0.05200
O1238       O  0.42842071  0.76865467  0.22496502    -0.57400
H1239       H  0.46922426  0.78476784  0.20312094     0.18100
O1240       O  0.44722871  0.86773701  0.19761667    -0.64200
H1241       H  0.40734494  0.85183056  0.22130685     0.16600
C1242       C  0.38760188  0.79032955  0.25678597     0.28800
C1243       C  0.36369120  0.78071689  0.26318874    -0.25100
C1244       C  0.34218887  0.78678622  0.24880261    -0.24300
C1245       C  0.34468849  0.80449216  0.22919338     0.40300
C1246       C  0.36860579  0.81346210  0.22243641    -0.26800
O1247       O  0.40822859  0.78401478  0.27111273    -0.58700
H1248       H  0.36225125  0.76738919  0.27850804     0.15900
O1249       O  0.32404728  0.81200634  0.21543320    -0.60100
H1250       H  0.37020381  0.82562969  0.20620454     0.14400
H1251       H  0.45765186  0.87542391  0.21118966     0.46200
H1252       H  0.41032203  0.79796807  0.28332501     0.41600
H1253       H  0.31663800  0.82601101  0.22515321     0.45000
H1254       H  0.44191629  0.76314898  0.23671544     0.36500
C1255       C  0.41943218  0.21620260  0.82836074    -0.27700
C1256       C  0.41202584  0.22132989  0.80351516     0.01900
C1257       C  0.42918492  0.21613635  0.78407937     0.30000
C1258       C  0.45285525  0.20543886  0.78953028    -0.19500
C1259       C  0.45983533  0.19925900  0.81428836    -0.28900
C1260       C  0.44297296  0.20524983  0.83382317     0.44000
C1261       C  0.38583386  0.23039983  0.79788265     0.05200
O1262       O  0.42259729  0.22049903  0.75954205    -0.57400
H1263       H  0.46535321  0.20101980  0.77416103     0.18100
O1264       O  0.44955143  0.20105781  0.85841565    -0.64200
H1265       H  0.40672409  0.22040598  0.84362338     0.16600
C1266       C  0.36453069  0.21628428  0.80545562     0.28800
C1267       C  0.34012301  0.22352804  0.79806083    -0.25100
C1268       C  0.33614602  0.24475171  0.78272850    -0.24300
C1269       C  0.35740565  0.25967753  0.77625516     0.40300
C1270       C  0.38192180  0.25243687  0.78379559    -0.26800
O1271       O  0.36741626  0.19456796  0.81906134    -0.58700
H1272       H  0.32429943  0.21163009  0.80336279     0.15900
O1273       O  0.35460837  0.28088224  0.76186132    -0.60100
H1274       H  0.39801562  0.26374369  0.77804196     0.14400
H1275       H  0.44032694  0.18548877  0.86326178     0.46200
H1276       H  0.36900709  0.18099674  0.80640070     0.41600
H1277       H  0.35968320  0.27586910  0.74470847     0.45000
H1278       H  0.41527670  0.20436997  0.75341958     0.36500
C1279       C  0.29178180  0.08254332  0.84734473    -0.27700
C1280       C  0.28405333  0.09012095  0.82333954     0.01900
C1281       C  0.28440132  0.07250655  0.80353946     0.30000
C1282       C  0.29428534  0.04838678  0.80738453    -0.19500
C1283       C  0.30419861  0.04148421  0.83086711    -0.28900
C1284       C  0.30187214  0.05846093  0.85121119     0.44000
C1285       C  0.27969822  0.11716079  0.81789809     0.05200
O1286       O  0.27662625  0.07930400  0.77990713    -0.57400
H1287       H  0.29572929  0.03571047  0.79153888     0.18100
O1288       O  0.30979330  0.05182380  0.87487554    -0.64200
H1289       H  0.29142701  0.09580409  0.86279203     0.16600
C1290       C  0.25790428  0.13001652  0.82567969     0.28800
C1291       C  0.25325806  0.15462759  0.81693716    -0.25100
C1292       C  0.27038504  0.16668300  0.80067987    -0.24300
C1293       C  0.29318090  0.15431106  0.79477351     0.40300
C1294       C  0.29759798  0.12990698  0.80336525    -0.26800
O1295       O  0.24027939  0.11811870  0.84032664    -0.58700
H1296       H  0.23556445  0.16358549  0.82156935     0.15900
O1297       O  0.31104346  0.16566649  0.77990633    -0.60100
H1298       H  0.31477519  0.12046812  0.79781259     0.14400
H1299       H  0.32613467  0.06079234  0.87752428     0.46200
H1300       H  0.24515039  0.12240438  0.85783372     0.41600
H1301       H  0.30941666  0.15735142  0.76328362     0.45000
H1302       H  0.25810084  0.07619857  0.77963803     0.36500
C1303       C  0.66843429  0.22158348  0.07737248    -0.27700
C1304       C  0.69161807  0.22763249  0.08879213     0.01900
C1305       C  0.71413496  0.22445729  0.07522335     0.30000
C1306       C  0.71331419  0.21363927  0.05110671    -0.19500
C1307       C  0.69013573  0.20582153  0.04041959    -0.28900
C1308       C  0.66754066  0.21082030  0.05342146     0.44000
C1309       C  0.69202315  0.23398964  0.11585010     0.05200
O1310       O  0.73708345  0.23008249  0.08611802    -0.57400
H1311       H  0.73086753  0.20995412  0.04147011     0.18100
O1312       O  0.64442231  0.20499393  0.04290995    -0.64200
H1313       H  0.65097451  0.22423313  0.08752940     0.16600
C1314       C  0.69509541  0.25885761  0.12442206     0.28800
C1315       C  0.69490928  0.26398462  0.15028739    -0.25100
C1316       C  0.69189333  0.24445648  0.16794720    -0.24300
C1317       C  0.68858247  0.21959751  0.15910977     0.40300
C1318       C  0.68837804  0.21461662  0.13331386    -0.26800
O1319       O  0.69863172  0.27816402  0.10771437    -0.58700
H1320       H  0.69794982  0.28319216  0.15653272     0.15900
O1321       O  0.68541034  0.19996887  0.17548746    -0.60100
H1322       H  0.68570602  0.19541007  0.12687967     0.14400
H1323       H  0.63856767  0.18957709  0.05168893     0.46200
H1324       H  0.68151229  0.28502672  0.10456322     0.41600
H1325       H  0.70241020  0.19237473  0.17729221     0.45000
H1326       H  0.74097726  0.24754788  0.08078878     0.36500
C1327       C  0.70882267  0.06016568  0.23459449    -0.27700
C1328       C  0.68719775  0.07476258  0.23896068     0.01900
C1329       C  0.66332325  0.06466279  0.23239920     0.30000
C1330       C  0.66153671  0.04174714  0.21954971    -0.19500
C1331       C  0.68327655  0.02803127  0.21347558    -0.28900
C1332       C  0.70699951  0.03684386  0.22216987     0.44000
C1333       C  0.68980830  0.10148075  0.24739291     0.05200
O1334       O  0.64161962  0.07762022  0.23745311    -0.57400
H1335       H  0.64302845  0.03508549  0.21350692     0.18100
O1336       O  0.72863480  0.02371430  0.21724077    -0.64200
H1337       H  0.72732280  0.06756457  0.23938996     0.16600
C1338       C  0.70499063  0.10852161  0.26818805     0.28800
C1339       C  0.70894023  0.13410492  0.27384449    -0.25100
C1340       C  0.69813494  0.15301712  0.25884440    -0.24300
C1341       C  0.68224524  0.14599443  0.23871794     0.40300
C1342       C  0.67805892  0.12049041  0.23324140    -0.26800
O1343       O  0.71671425  0.09063719  0.28260722    -0.58700
H1344       H  0.72170436  0.13917344  0.28908462     0.15900
O1345       O  0.67100367  0.16401866  0.22407736    -0.60100
H1346       H  0.66648352  0.11561844  0.21705510     0.14400
H1347       H  0.73524539  0.03096253  0.20142457     0.46200
H1348       H  0.70364714  0.08471453  0.29452351     0.41600
H1349       H  0.67938108  0.16282693  0.20755324     0.45000
H1350       H  0.63665747  0.07217751  0.25452844     0.36500
C1351       C  0.40554388  0.98034534  0.89855320    -0.27700
C1352       C  0.41843687  0.00326169  0.90232884     0.01900
C1353       C  0.41167509  0.02434454  0.88777706     0.30000
C1354       C  0.39123734  0.02269092  0.87099695    -0.19500
C1355       C  0.37789023  0.99992392  0.86774671    -0.28900
C1356       C  0.38551838  0.97852271  0.88135444     0.44000
C1357       C  0.43847357  0.00479286  0.92187128     0.05200
O1358       O  0.42489963  0.04660755  0.88974574    -0.57400
H1359       H  0.38595326  0.03919811  0.86029475     0.18100
O1360       O  0.37305729  0.95591990  0.87861571    -0.64200
H1361       H  0.41061117  0.96391409  0.90947702     0.16600
C1362       C  0.43762746  0.02299724  0.94109469     0.28800
C1363       C  0.45581668  0.02283682  0.96029233    -0.25100
C1364       C  0.47484659  0.00465290  0.96074224    -0.24300
C1365       C  0.47583016  0.98655039  0.94156146     0.40300
C1366       C  0.45776287  0.98677487  0.92222611    -0.26800
O1367       O  0.41824515  0.03999323  0.94208513    -0.58700
H1368       H  0.45480700  0.03666281  0.97517404     0.15900
O1369       O  0.49482747  0.96910277  0.94126794    -0.60100
H1370       H  0.45872499  0.97273696  0.90751408     0.14400
H1371       H  0.35873014  0.95661143  0.89048678     0.46200
H1372       H  0.42623271  0.05672399  0.93934120     0.41600
H1373       H  0.48635885  0.95255481  0.94362177     0.45000
H1374       H  0.44063579  0.04401981  0.88010365     0.36500
C1375       C  0.41387507  0.89365083  0.97960350    -0.27700
C1376       C  0.41717786  0.90833979  0.00122200     0.01900
C1377       C  0.40064560  0.90488350  0.02151215     0.30000
C1378       C  0.38082282  0.88731595  0.01974671    -0.19500
C1379       C  0.37713819  0.87276325  0.99790277    -0.28900
C1380       C  0.39417510  0.87602855  0.97777679     0.44000
C1381       C  0.43712243  0.92806482  0.00173316     0.05200
O1382       O  0.40363655  0.91868798  0.04311123    -0.57400
H1383       H  0.36826120  0.88523695  0.03558087     0.18100
O1384       O  0.39202996  0.86207316  0.95621471    -0.64200
H1385       H  0.42630261  0.89626512  0.96372900     0.16600
C1386       C  0.46246420  0.92233770  0.99631861     0.28800
C1387       C  0.48064870  0.94160602  0.99552321    -0.25100
C1388       C  0.47393321  0.96668306  0.00004299    -0.24300
C1389       C  0.44870360  0.97238550  0.00582091     0.40300
C1390       C  0.43049246  0.95310829  0.00657740    -0.26800
O1391       O  0.46973813  0.89786824  0.99273843    -0.58700
H1392       H  0.50009341  0.93698335  0.99142742     0.15900
O1393       O  0.44207877  0.99654267  0.01195063    -0.60100
H1394       H  0.41105829  0.95778211  0.01073970     0.14400
H1395       H  0.38231178  0.87271455  0.94434472     0.46200
H1396       H  0.47321246  0.89639267  0.97453607     0.41600
H1397       H  0.42856549  0.00130434  0.99987743     0.45000
H1398       H  0.41403141  0.90805305  0.05440525     0.36500
C1399       C  0.57386752  0.08081270  0.01551459    -0.27700
C1400       C  0.59157517  0.07982635  0.99605829     0.01900
C1401       C  0.58959598  0.06058020  0.97796523     0.30000
C1402       C  0.57028325  0.04247865  0.97972964    -0.19500
C1403       C  0.55250414  0.04358146  0.99909830    -0.28900
C1404       C  0.55422286  0.06305016  0.01692151     0.44000
C1405       C  0.61246101  0.09853895  0.99543189     0.05200
O1406       O  0.60713427  0.05868139  0.95923156    -0.57400
H1407       H  0.56917595  0.02747005  0.96597694     0.18100
O1408       O  0.53688627  0.06470836  0.03583557    -0.64200
H1409       H  0.57516494  0.09556624  0.02952745     0.16600
C1410       C  0.61582236  0.11468827  0.97473286     0.28800
C1411       C  0.63560274  0.13240186  0.97487735    -0.25100
C1412       C  0.65172245  0.13475341  0.99581167    -0.24300
C1413       C  0.64839950  0.11857582  0.01645220     0.40300
C1414       C  0.62888130  0.10064080  0.01616063    -0.26800
O1415       O  0.59945011  0.11381675  0.95464081    -0.58700
H1416       H  0.63776036  0.14497227  0.95901430     0.15900
O1417       O  0.66419990  0.12009275  0.03695522    -0.60100
H1418       H  0.62653739  0.08829209  0.03217211     0.14400
H1419       H  0.52580862  0.07895765  0.03119382     0.46200
H1420       H  0.58539289  0.12515851  0.95915630     0.41600
H1421       H  0.67854848  0.10888792  0.03303179     0.45000
H1422       H  0.59806869  0.06346774  0.94360118     0.36500
C1423       C  0.50284222  0.08668237  0.94799795    -0.27700
C1424       C  0.51023701  0.08090737  0.92340175     0.01900
C1425       C  0.51882920  0.05639040  0.91808702     0.30000
C1426       C  0.52002752  0.03828958  0.93712948    -0.19500
C1427       C  0.51251444  0.04411300  0.96159257    -0.28900
C1428       C  0.50368795  0.06841075  0.96694763     0.44000
C1429       C  0.50925663  0.10053021  0.90347067     0.05200
O1430       O  0.52582266  0.04982502  0.89425553    -0.57400
H1431       H  0.52660171  0.01953550  0.93277997     0.18100
O1432       O  0.49584378  0.07438949  0.99066512    -0.64200
H1433       H  0.49648417  0.10544247  0.95258109     0.16600
C1434       C  0.48707949  0.11428589  0.89856441     0.28800
C1435       C  0.48653697  0.13207239  0.87907582    -0.25100
C1436       C  0.50794919  0.13665039  0.86413028    -0.24300
C1437       C  0.53029241  0.12300376  0.86946756     0.40300
C1438       C  0.53077506  0.10538434  0.88899654    -0.26800
O1439       O  0.46545843  0.10961047  0.91191956    -0.58700
H1440       H  0.46909385  0.14205660  0.87551776     0.15900
O1441       O  0.55199138  0.12680359  0.85599383    -0.60100
H1442       H  0.54816399  0.09537287  0.89282139     0.14400
H1443       H  0.47710882  0.07470278  0.98968040     0.46200
H1444       H  0.46374305  0.12418405  0.92340318     0.41600
H1445       H  0.55205545  0.11316706  0.84327586     0.45000
H1446       H  0.50989992  0.04457009  0.88570493     0.36500
C1447       C  0.50290559  0.91555228  0.12005594    -0.27700
C1448       C  0.50509268  0.90893072  0.09464086     0.01900
C1449       C  0.50581619  0.88327786  0.08796151     0.30000
C1450       C  0.50529953  0.86476295  0.10662369    -0.19500
C1451       C  0.50329387  0.87145199  0.13196925    -0.28900
C1452       C  0.50188329  0.89698974  0.13867085     0.44000
C1453       C  0.50701091  0.92894782  0.07536844     0.05200
O1454       O  0.50685745  0.87612429  0.06326039    -0.57400
H1455       H  0.50621064  0.84510037  0.10129975     0.18100
O1456       O  0.50013431  0.90396996  0.16337808    -0.64200
H1457       H  0.50245314  0.93519549  0.12550801     0.16600
C1458       C  0.48854129  0.94780176  0.07353375     0.28800
C1459       C  0.49114579  0.96709310  0.05590397    -0.25100
C1460       C  0.51167009  0.96757495  0.03937250    -0.24300
C1461       C  0.52996581  0.94849963  0.04088464     0.40300
C1462       C  0.52768992  0.92951339  0.05896371    -0.26800
O1463       O  0.46761795  0.94724579  0.08858046    -0.58700
H1464       H  0.47678080  0.98147697  0.05470609     0.15900
O1465       O  0.55002007  0.94815863  0.02472015    -0.60100
H1466       H  0.54210625  0.91518008  0.06019876     0.14400
H1467       H  0.51776487  0.90762926  0.16885413     0.46200
H1468       H  0.45466063  0.93759723  0.07893039     0.41600
H1469       H  0.54335357  0.94040597  0.00906282     0.45000
H1470       H  0.48900907  0.87576132  0.05736205     0.36500
C1471       C  0.61690244  0.97697002  0.10318136    -0.27700
C1472       C  0.60692071  0.00081916  0.09826680     0.01900
C1473       C  0.61457221  0.02137051  0.11320338     0.30000
C1474       C  0.63198663  0.01787951  0.13281506    -0.19500
C1475       C  0.64218857  0.99397070  0.13783239    -0.28900
C1476       C  0.63438928  0.97339833  0.12269966     0.44000
C1477       C  0.58818033  0.00381658  0.07775324     0.05200
O1478       O  0.60523002  0.04496282  0.10868748    -0.57400
H1479       H  0.63767698  0.03405870  0.14395183     0.18100
O1480       O  0.64293117  0.94952646  0.12732722    -0.64200
H1481       H  0.61085536  0.96094732  0.09197733     0.16600
C1482       C  0.59464942  0.99862248  0.05271758     0.28800
C1483       C  0.57623802  0.99995759  0.03375962    -0.25100
C1484       C  0.55122484  0.00630362  0.03947058    -0.24300
C1485       C  0.54488595  0.01208847  0.06441720     0.40300
C1486       C  0.56334219  0.01082391  0.08337539    -0.26800
O1487       O  0.61883137  0.99184590  0.04669212    -0.58700
H1488       H  0.58131159  0.99547689  0.01462247     0.15900
O1489       O  0.52052086  0.01825997  0.07045066    -0.60100
H1490       H  0.55812811  0.01474828  0.10259679     0.14400
H1491       H  0.65631527  0.94662839  0.11473890     0.46200
H1492       H  0.62819134  0.00795415  0.04455728     0.41600
H1493       H  0.52104220  0.03645412  0.07459062     0.45000
H1494       H  0.61675587  0.05249632  0.09610603     0.36500
C1495       C  0.76213060  0.86501152  0.30938864    -0.27700
C1496       C  0.78489091  0.87688909  0.30241610     0.01900
C1497       C  0.80385694  0.86243142  0.29112024     0.30000
C1498       C  0.79930543  0.83703813  0.28543712    -0.19500
C1499       C  0.77595164  0.82545964  0.29089670    -0.28900
C1500       C  0.75755325  0.83950450  0.30368732     0.44000
C1501       C  0.78883523  0.90430745  0.30696298     0.05200
O1502       O  0.82699761  0.87296380  0.28575306    -0.57400
H1503       H  0.81381292  0.82659682  0.27576632     0.18100
O1504       O  0.73425813  0.82923057  0.30871555    -0.64200
H1505       H  0.74746362  0.87582968  0.31836918     0.16600
C1506       C  0.79355092  0.92119427  0.28704164     0.28800
C1507       C  0.79985644  0.94649970  0.29202829    -0.25100
C1508       C  0.80158653  0.95532857  0.31681244    -0.24300
C1509       C  0.79516264  0.93871970  0.33658674     0.40300
C1510       C  0.78887151  0.91353954  0.33156819    -0.26800
O1511       O  0.79286525  0.91291816  0.26266868    -0.58700
H1512       H  0.80477566  0.95880898  0.27658642     0.15900
O1513       O  0.79604670  0.94663816  0.36109055    -0.60100
H1514       H  0.78499070  0.90091961  0.34706528     0.14400
H1515       H  0.73617428  0.82106886  0.32534656     0.46200
H1516       H  0.77556963  0.91675280  0.25652487     0.41600
H1517       H  0.77898024  0.95338652  0.36445491     0.45000
H1518       H  0.82731722  0.87472468  0.26728556     0.36500
C1519       C  0.73167001  0.91180860  0.20284218    -0.27700
C1520       C  0.72972599  0.89514569  0.18237799     0.01900
C1521       C  0.71807217  0.90350714  0.16012120     0.30000
C1522       C  0.70727411  0.92742703  0.15905570    -0.19500
C1523       C  0.70785658  0.94372963  0.17995943    -0.28900
C1524       C  0.72108672  0.93596160  0.20172153     0.44000
C1525       C  0.73699402  0.86830664  0.18550090     0.05200
O1526       O  0.71628984  0.88806166  0.13953194    -0.57400
H1527       H  0.69780187  0.93290451  0.14183498     0.18100
O1528       O  0.72243635  0.95103476  0.22258706    -0.64200
H1529       H  0.74029549  0.90564314  0.22026539     0.16600
C1530       C  0.76079113  0.86142727  0.19532748     0.28800
C1531       C  0.76524238  0.83633638  0.20225955    -0.25100
C1532       C  0.74610350  0.81799220  0.19976660    -0.24300
C1533       C  0.72320539  0.82444493  0.18800643     0.40300
C1534       C  0.71873922  0.84939246  0.18100523    -0.26800
O1535       O  0.77947855  0.87921018  0.19881381    -0.58700
H1536       H  0.78289811  0.83168752  0.21158868     0.15900
O1537       O  0.70424056  0.80695016  0.18515890    -0.60100
H1538       H  0.70027168  0.85424572  0.17357861     0.14400
H1539       H  0.73898627  0.95987291  0.22142694     0.46200
H1540       H  0.78099258  0.88148765  0.21732122     0.41600
H1541       H  0.70950123  0.79617618  0.17095932     0.45000
H1542       H  0.73259593  0.89020356  0.13069182     0.36500
C1543       C  0.93274621  0.71727730  0.20652928    -0.27700
C1544       C  0.91467685  0.71853683  0.18709247     0.01900
C1545       C  0.92096289  0.70945024  0.16318421     0.30000
C1546       C  0.94457262  0.69837205  0.15930223    -0.19500
C1547       C  0.96226976  0.69595053  0.17904378    -0.28900
C1548       C  0.95639248  0.70615339  0.20268606     0.44000
C1549       C  0.88897117  0.72817456  0.19246658     0.05200
O1550       O  0.90427236  0.71169814  0.14345048    -0.57400
H1551       H  0.94882683  0.69119152  0.14079006     0.18100
O1552       O  0.97278987  0.70381505  0.22260164    -0.64200
H1553       H  0.92812252  0.72411211  0.22503231     0.16600
C1554       C  0.86743121  0.71258284  0.18958361     0.28800
C1555       C  0.84370293  0.72101043  0.19732427    -0.25100
C1556       C  0.84088256  0.74497484  0.20810150    -0.24300
C1557       C  0.86230529  0.76101272  0.20989191     0.40300
C1558       C  0.88609299  0.75245303  0.20235323    -0.26800
O1559       O  0.86954974  0.68858412  0.18037055    -0.58700
H1560       H  0.82762769  0.70828159  0.19581685     0.15900
O1561       O  0.86065504  0.78440184  0.22061751    -0.60100
H1562       H  0.90249880  0.76461416  0.20478649     0.14400
H1563       H  0.98198313  0.72014571  0.22353468     0.46200
H1564       H  0.87213122  0.67777800  0.19532620     0.41600
H1565       H  0.85651778  0.79591351  0.20655510     0.45000
H1566       H  0.89893606  0.69426473  0.13915212     0.36500
C1567       C  0.87071150  0.77800313  0.30440075    -0.27700
C1568       C  0.89187088  0.76356879  0.29829492     0.01900
C1569       C  0.88825263  0.73905627  0.28885065     0.30000
C1570       C  0.86363050  0.72981917  0.28436638    -0.19500
C1571       C  0.84244796  0.74492414  0.28897402    -0.28900
C1572       C  0.84622231  0.76890832  0.29991787     0.44000
C1573       C  0.91743036  0.77468916  0.30209070     0.05200
O1574       O  0.90865080  0.72399134  0.28425841    -0.57400
H1575       H  0.86122149  0.71135485  0.27599532     0.18100
O1576       O  0.82617621  0.78415692  0.30533447    -0.64200
H1577       H  0.87322852  0.79678486  0.31203494     0.16600
C1578       C  0.93366048  0.77969223  0.28178418     0.28800
C1579       C  0.95619598  0.79349173  0.28569408    -0.25100
C1580       C  0.96270793  0.80246809  0.30971561    -0.24300
C1581       C  0.94696233  0.79620022  0.33014196     0.40300
C1582       C  0.92453324  0.78267150  0.32617435    -0.26800
O1583       O  0.92670700  0.77285025  0.25786357    -0.58700
H1584       H  0.96794914  0.79813945  0.26976251     0.15900
O1585       O  0.95303267  0.80362926  0.35411969    -0.60100
H1586       H  0.91229210  0.77883330  0.34196252     0.14400
H1587       H  0.81911218  0.77747023  0.32119497     0.46200
H1588       H  0.93858085  0.75935517  0.25310149     0.41600
H1589       H  0.96309371  0.78963072  0.36123573     0.45000
H1590       H  0.90899937  0.72180377  0.26579197     0.36500
C1591       C  0.75168280  0.62644228  0.30525788    -0.27700
C1592       C  0.72844665  0.62316789  0.31741887     0.01900
C1593       C  0.71426386  0.64466908  0.32362789     0.30000
C1594       C  0.72230433  0.66862595  0.31566916    -0.19500
C1595       C  0.74430742  0.67147898  0.30140693    -0.28900
C1596       C  0.75950425  0.65031084  0.29705924     0.44000
C1597       C  0.71805005  0.59729293  0.32121805     0.05200
O1598       O  0.69159115  0.64228599  0.33577457    -0.57400
H1599       H  0.71028544  0.68469170  0.31889775     0.18100
O1600       O  0.78096697  0.65247221  0.28290854    -0.64200
H1601       H  0.76305809  0.61022127  0.30070483     0.16600
C1602       C  0.71456077  0.58073650  0.30071087     0.28800
C1603       C  0.70319780  0.55701227  0.30423495    -0.25100
C1604       C  0.69482954  0.54944570  0.32802044    -0.24300
C1605       C  0.69894160  0.56579009  0.34863306     0.40300
C1606       C  0.71056664  0.58937216  0.34514507    -0.26800
O1607       O  0.72058085  0.58829557  0.27685837    -0.58700
H1608       H  0.69990237  0.54498300  0.28809031     0.15900
O1609       O  0.69205454  0.55870622  0.37238764    -0.60100
H1610       H  0.71344091  0.60167207  0.36116104     0.14400
H1611       H  0.77621992  0.64556424  0.26621874     0.46200
H1612       H  0.73639587  0.57932521  0.27274584     0.41600
H1613       H  0.67622351  0.56793787  0.37582631     0.45000
H1614       H  0.67864249  0.64090233  0.32225928     0.36500
C1615       C  0.78109651  0.56768753  0.20477039    -0.27700
C1616       C  0.77927810  0.58627227  0.18604188     0.01900
C1617       C  0.78371522  0.57960056  0.16099614     0.30000
C1618       C  0.79135820  0.55515386  0.15512964    -0.19500
C1619       C  0.79467986  0.53677573  0.17392839    -0.28900
C1620       C  0.78856369  0.54302475  0.19886611     0.44000
C1621       C  0.77601897  0.61310393  0.19308663     0.05200
O1622       O  0.78274585  0.59742372  0.14240157    -0.57400
H1623       H  0.79573023  0.55090188  0.13576340     0.18100
O1624       O  0.79107714  0.52570456  0.21777309    -0.64200
H1625       H  0.77768299  0.57260945  0.22417779     0.16600
C1626       C  0.75423944  0.62676341  0.18642713     0.28800
C1627       C  0.75178281  0.65199369  0.19411908    -0.25100
C1628       C  0.77107892  0.66400393  0.20812871    -0.24300
C1629       C  0.79349815  0.65059716  0.21337477     0.40300
C1630       C  0.79570419  0.62540402  0.20601383    -0.26800
O1631       O  0.73474718  0.61519936  0.17362428    -0.58700
H1632       H  0.73430365  0.66175929  0.19010337     0.15900
O1633       O  0.81351150  0.66211743  0.22548861    -0.60100
H1634       H  0.81291674  0.61535573  0.21050803     0.14400
H1635       H  0.80849624  0.52819257  0.22444634     0.46200
H1636       H  0.73549657  0.62206549  0.15633927     0.41600
H1637       H  0.81494622  0.65372381  0.24204674     0.45000
H1638       H  0.76688193  0.59379030  0.13296373     0.36500
C1639       C  0.63515245  0.75451109  0.17947008    -0.27700
C1640       C  0.62289350  0.77611865  0.18831439     0.01900
C1641       C  0.63585287  0.79255761  0.20463282     0.30000
C1642       C  0.65994404  0.78659036  0.21326340    -0.19500
C1643       C  0.67190152  0.76422381  0.20590002    -0.28900
C1644       C  0.65957273  0.74841651  0.18825915     0.44000
C1645       C  0.59619539  0.78144342  0.18192578     0.05200
O1646       O  0.62460545  0.81409333  0.21314151    -0.57400
H1647       H  0.66901581  0.79929851  0.22654696     0.18100
O1648       O  0.67052299  0.72647300  0.18050968    -0.64200
H1649       H  0.62536746  0.74184632  0.16666638     0.16600
C1650       C  0.58934859  0.79058563  0.15813851     0.28800
C1651       C  0.56549605  0.80136071  0.15444267    -0.25100
C1652       C  0.54805589  0.80294659  0.17423561    -0.24300
C1653       C  0.55440575  0.79201197  0.19758266     0.40300
C1654       C  0.57829350  0.78140681  0.20121647    -0.26800
O1655       O  0.60651594  0.79092707  0.13899178    -0.58700
H1656       H  0.56101182  0.80933468  0.13625329     0.15900
O1657       O  0.53811322  0.79287192  0.21746496    -0.60100
H1658       H  0.58343606  0.77442937  0.21966059     0.14400
H1659       H  0.66464012  0.71347626  0.19252778     0.46200
H1660       H  0.60469731  0.77426000  0.13074829     0.41600
H1661       H  0.54256373  0.80859371  0.22659819     0.45000
H1662       H  0.62922765  0.82728517  0.20080880     0.36500
C1663       C  0.63717152  0.70096485  0.30477824    -0.27700
C1664       C  0.62419368  0.72080256  0.31601315     0.01900
C1665       C  0.63699411  0.74375034  0.32051751     0.30000
C1666       C  0.66196377  0.74712378  0.31203752    -0.19500
C1667       C  0.67415939  0.72784154  0.29878765    -0.28900
C1668       C  0.66174404  0.70436150  0.29595994     0.44000
C1669       C  0.59690329  0.71719567  0.32121784     0.05200
O1670       O  0.62486834  0.76331851  0.33196007    -0.57400
H1671       H  0.67101209  0.76538938  0.31414298     0.18100
O1672       O  0.67320032  0.68480611  0.28376429    -0.64200
H1673       H  0.62772283  0.68301240  0.30175256     0.16600
C1674       C  0.57985293  0.71227130  0.30130638     0.28800
C1675       C  0.55522253  0.70384089  0.30627278    -0.25100
C1676       C  0.54734102  0.69974105  0.33101852    -0.24300
C1677       C  0.56382417  0.70646755  0.35098019     0.40300
C1678       C  0.58840174  0.71526572  0.34597798    -0.26800
O1679       O  0.58739146  0.71508737  0.27687808    -0.58700
H1680       H  0.54281516  0.69905785  0.29066770     0.15900
O1681       O  0.55608901  0.70442547  0.37541512    -0.60100
H1682       H  0.60124113  0.71928281  0.36144989     0.14400
H1683       H  0.66502135  0.68396380  0.26696148     0.46200
H1684       H  0.59124879  0.69785175  0.27094309     0.41600
H1685       H  0.56410431  0.68889784  0.38190236     0.45000
H1686       H  0.61723532  0.77318050  0.31808110     0.36500
C1687       C  0.91914970  0.29099867  0.77466192    -0.27700
C1688       C  0.90363420  0.31192919  0.76991482     0.01900
C1689       C  0.91208188  0.33590059  0.77784559     0.30000
C1690       C  0.93481852  0.33848367  0.79123962    -0.19500
C1691       C  0.94997977  0.31752509  0.79663015    -0.28900
C1692       C  0.94220818  0.29367486  0.78775897     0.44000
C1693       C  0.87791962  0.30840924  0.75857326     0.05200
O1694       O  0.89800740  0.35695173  0.77302133    -0.57400
H1695       H  0.94051642  0.35705620  0.79767402     0.18100
O1696       O  0.95631993  0.27270187  0.79278779    -0.64200
H1697       H  0.91291101  0.27232938  0.76914948     0.16600
C1698       C  0.87390851  0.29370259  0.73686569     0.28800
C1699       C  0.84919503  0.28875610  0.72821355    -0.25100
C1700       C  0.82803729  0.29805873  0.74103391    -0.24300
C1701       C  0.83221321  0.31415896  0.76179416     0.40300
C1702       C  0.85685641  0.31893249  0.77047797    -0.26800
O1703       O  0.89402609  0.28408467  0.72399526    -0.58700
H1704       H  0.84660583  0.27645819  0.71215215     0.15900
O1705       O  0.81237689  0.32375643  0.77507869    -0.60100
H1706       H  0.85939573  0.33004480  0.78737594     0.14400
H1707       H  0.95061267  0.26680205  0.80948137     0.46200
H1708       H  0.89335986  0.26565293  0.72691120     0.41600
H1709       H  0.80754813  0.33933794  0.76605985     0.45000
H1710       H  0.90336568  0.36268550  0.75616649     0.36500
C1711       C  0.85624333  0.18314631  0.72394080    -0.27700
C1712       C  0.87857467  0.19384904  0.73396085     0.01900
C1713       C  0.87639290  0.21219429  0.75298576     0.30000
C1714       C  0.85246955  0.22070406  0.76028529    -0.19500
C1715       C  0.83013558  0.21090583  0.74927832    -0.28900
C1716       C  0.83232928  0.19110871  0.73170976     0.44000
C1717       C  0.90377135  0.18674419  0.72343879     0.05200
O1718       O  0.89754730  0.22251208  0.76411353    -0.57400
H1719       H  0.85152913  0.23582286  0.77389051     0.18100
O1720       O  0.81130663  0.18041750  0.72067491    -0.64200
H1721       H  0.85720524  0.16925318  0.70912498     0.16600
C1722       C  0.90993720  0.16139745  0.71869273     0.28800
C1723       C  0.93293811  0.15539258  0.70723615    -0.25100
C1724       C  0.95045998  0.17421262  0.70041478    -0.24300
C1725       C  0.94458771  0.19951459  0.70558333     0.40300
C1726       C  0.92144255  0.20557966  0.71683318    -0.26800
O1727       O  0.89399449  0.14226728  0.72598814    -0.58700
H1728       H  0.93710502  0.13576888  0.70375029     0.15900
O1729       O  0.96092505  0.21855416  0.69902892    -0.60100
H1730       H  0.91703354  0.22522311  0.71972683     0.14400
H1731       H  0.80551219  0.16735135  0.73265960     0.46200
H1732       H  0.88755614  0.13452378  0.71021412     0.41600
H1733       H  0.95461851  0.22476492  0.68260284     0.45000
H1734       H  0.90216134  0.21068106  0.77775396     0.36500
C1735       C  0.77162570  0.21123405  0.87698415    -0.27700
C1736       C  0.75150464  0.19435806  0.88132397     0.01900
C1737       C  0.73830198  0.18412409  0.86054059     0.30000
C1738       C  0.74451749  0.19164823  0.83618202    -0.19500
C1739       C  0.76333716  0.20996427  0.83188051    -0.28900
C1740       C  0.77746571  0.21922057  0.85258255     0.44000
C1741       C  0.74259592  0.18978509  0.90741873     0.05200
O1742       O  0.71745699  0.16894574  0.86392330    -0.57400
H1743       H  0.73301019  0.18453368  0.82077962     0.18100
O1744       O  0.79642783  0.23669354  0.84931047    -0.64200
H1745       H  0.78212990  0.21915320  0.89269430     0.16600
C1746       C  0.73733265  0.16534136  0.91630745     0.28800
C1747       C  0.72536401  0.16202872  0.93942445    -0.25100
C1748       C  0.71901614  0.18277489  0.95449665    -0.24300
C1749       C  0.72598803  0.20709288  0.94647765     0.40300
C1750       C  0.73752323  0.21039589  0.92309504    -0.26800
O1751       O  0.74326581  0.14454494  0.90234716    -0.58700
H1752       H  0.72063642  0.14308603  0.94541137     0.15900
O1753       O  0.71978095  0.22789690  0.96029727    -0.60100
H1754       H  0.74147616  0.22927597  0.91674190     0.14400
H1755       H  0.78903077  0.25304441  0.85426786     0.46200
H1756       H  0.76166108  0.14208132  0.90504445     0.41600
H1757       H  0.73569120  0.23313291  0.96888324     0.45000
H1758       H  0.72195380  0.15240002  0.85665220     0.36500
C1759       C  0.74781301  0.31852790  0.92552107    -0.27700
C1760       C  0.76220099  0.32109128  0.90356531     0.01900
C1761       C  0.78757229  0.32923076  0.90564709     0.30000
C1762       C  0.79809038  0.33461114  0.92922588    -0.19500
C1763       C  0.78392994  0.33148860  0.95126561    -0.28900
C1764       C  0.75849523  0.32349114  0.94920477     0.44000
C1765       C  0.75146520  0.31309078  0.87887902     0.05200
O1766       O  0.80256729  0.33118793  0.88483078    -0.57400
H1767       H  0.81772684  0.34058716  0.93026159     0.18100
O1768       O  0.74384148  0.32050612  0.97012194    -0.64200
H1769       H  0.72824724  0.31236605  0.92430918     0.16600
C1770       C  0.74086275  0.28886432  0.87597677     0.28800
C1771       C  0.73381834  0.28008567  0.85222023    -0.25100
C1772       C  0.73792984  0.29476569  0.83064754    -0.24300
C1773       C  0.74720418  0.31960773  0.83365369     0.40300
C1774       C  0.75376006  0.32860966  0.85763968    -0.26800
O1775       O  0.73917788  0.27277064  0.89597911    -0.58700
H1776       H  0.72708421  0.26082180  0.85060683     0.15900
O1777       O  0.75128408  0.33475719  0.81323160    -0.60100
H1778       H  0.76159024  0.34743665  0.85953233     0.14400
H1779       H  0.73719315  0.33750297  0.97379483     0.46200
H1780       H  0.75661997  0.26646861  0.89857024     0.41600
H1781       H  0.73555980  0.34461677  0.81126124     0.45000
H1782       H  0.81007691  0.31428834  0.88268958     0.36500
C1783       C  0.57884346  0.20425259  0.76935462    -0.27700
C1784       C  0.59604290  0.18420048  0.76778502     0.01900
C1785       C  0.58873962  0.16060299  0.77762529     0.30000
C1786       C  0.56557536  0.15780027  0.78995488    -0.19500
C1787       C  0.54873317  0.17803821  0.79225704    -0.28900
C1788       C  0.55531235  0.20125663  0.78115528     0.44000
C1789       C  0.62205585  0.18852591  0.75755520     0.05200
O1790       O  0.60426424  0.14014645  0.77568029    -0.57400
H1791       H  0.56086919  0.13963363  0.79797873     0.18100
O1792       O  0.53944907  0.22148585  0.78262885    -0.64200
H1793       H  0.58405675  0.22267372  0.76233707     0.16600
C1794       C  0.62610189  0.20241792  0.73537308     0.28800
C1795       C  0.65075338  0.20887219  0.72801125    -0.25100
C1796       C  0.67198197  0.20131313  0.74216159    -0.24300
C1797       C  0.66798462  0.18586824  0.76336427     0.40300
C1798       C  0.64330972  0.17985228  0.77095224    -0.26800
O1799       O  0.60606356  0.21031639  0.72100779    -0.58700
H1800       H  0.65315980  0.22071117  0.71163849     0.15900
O1801       O  0.68795615  0.17748047  0.77759111    -0.60100
H1802       H  0.64087144  0.16931483  0.78816465     0.14400
H1803       H  0.54414651  0.23012404  0.79851875     0.46200
H1804       H  0.60340717  0.19691893  0.70829287     0.41600
H1805       H  0.68946224  0.18950269  0.79178981     0.45000
H1806       H  0.60141170  0.13358153  0.75845353     0.36500
C1807       C  0.58387788  0.33105538  0.71972045    -0.27700
C1808       C  0.59048470  0.30660463  0.72694838     0.01900
C1809       C  0.57210531  0.28725910  0.72484621     0.30000
C1810       C  0.54820709  0.29224014  0.71421522    -0.19500
C1811       C  0.54218619  0.31645706  0.70543950    -0.28900
C1812       C  0.56006215  0.33611753  0.70928328     0.44000
C1813       C  0.61710137  0.30129007  0.73477777     0.05200
O1814       O  0.57770203  0.26315347  0.73198277    -0.57400
H1815       H  0.53482756  0.27684456  0.71181642     0.18100
O1816       O  0.55472543  0.36040773  0.70249459    -0.64200
H1817       H  0.59750719  0.34629584  0.72172976     0.16600
C1818       C  0.63741063  0.30739781  0.71881540     0.28800
C1819       C  0.66227560  0.30113832  0.72554836    -0.25100
C1820       C  0.66754223  0.28822059  0.74799139    -0.24300
C1821       C  0.64726322  0.28303352  0.76447089     0.40300
C1822       C  0.62237645  0.28948405  0.75777297    -0.26800
O1823       O  0.63301750  0.31835561  0.69590423    -0.58700
H1824       H  0.67725408  0.30502134  0.71230738     0.15900
O1825       O  0.65132190  0.27072016  0.78673872    -0.60100
H1826       H  0.60707220  0.28486271  0.77041247     0.14400
H1827       H  0.54633202  0.36784194  0.71729503     0.46200
H1828       H  0.63036062  0.30412226  0.68409976     0.41600
H1829       H  0.65720747  0.28392981  0.79863250     0.45000
H1830       H  0.58593977  0.25556402  0.71718106     0.36500
C1831       C  0.75256591  0.29709403  0.61792475    -0.27700
C1832       C  0.72961373  0.30793880  0.61032882     0.01900
C1833       C  0.71039901  0.31141518  0.62808248     0.30000
C1834       C  0.71366525  0.30283542  0.65263008    -0.19500
C1835       C  0.73608441  0.29095214  0.66009564    -0.28900
C1836       C  0.75595456  0.28870562  0.64274278     0.44000
C1837       C  0.72430643  0.31331495  0.58355095     0.05200
O1838       O  0.68744688  0.32110584  0.62098414    -0.57400
H1839       H  0.69802546  0.30430353  0.66556831     0.18100
O1840       O  0.77796154  0.27680048  0.64932556    -0.64200
H1841       H  0.76743774  0.29423204  0.60437196     0.16600
C1842       C  0.71828567  0.33783085  0.57578339     0.28800
C1843       C  0.70699383  0.34171476  0.55231825    -0.25100
C1844       C  0.70157638  0.32138633  0.53612859    -0.24300
C1845       C  0.70957581  0.29708801  0.54308722     0.40300
C1846       C  0.72087242  0.29321742  0.56669801    -0.26800
O1847       O  0.72163948  0.35787453  0.59174360    -0.58700
H1848       H  0.70131098  0.36061432  0.54728316     0.15900
O1849       O  0.70406309  0.27665389  0.52823368    -0.60100
H1850       H  0.72522156  0.27420443  0.57258587     0.14400
H1851       H  0.77624206  0.25950582  0.64247032     0.46200
H1852       H  0.73979987  0.36249019  0.59043974     0.41600
H1853       H  0.71950469  0.27391323  0.51819914     0.45000
H1854       H  0.68727961  0.33844358  0.62787923     0.36500
C1855       C  0.77826187  0.20269610  0.56782281    -0.27700
C1856       C  0.77542968  0.18358873  0.58581877     0.01900
C1857       C  0.78092068  0.15864192  0.57927966     0.30000
C1858       C  0.79086684  0.15325700  0.55567334    -0.19500
C1859       C  0.79565062  0.17253137  0.53823221    -0.28900
C1860       C  0.78814701  0.19730003  0.54403620     0.44000
C1861       C  0.77052967  0.19015315  0.61231623     0.05200
O1862       O  0.77712391  0.13950745  0.59617115    -0.57400
H1863       H  0.79578274  0.13397420  0.55139691     0.18100
O1864       O  0.79235011  0.21667888  0.52755644    -0.64200
H1865       H  0.77416713  0.22203173  0.57272426     0.16600
C1866       C  0.79006950  0.18779530  0.63020457     0.28800
C1867       C  0.78637255  0.19585771  0.65482371    -0.25100
C1868       C  0.76335700  0.20651573  0.66212147    -0.24300
C1869       C  0.74333559  0.20780799  0.64452366     0.40300
C1870       C  0.74705087  0.19969547  0.61970521    -0.26800
O1871       O  0.81357250  0.17968682  0.62318512    -0.58700
H1872       H  0.80217034  0.19518745  0.66790427     0.15900
O1873       O  0.72074667  0.21849517  0.65089695    -0.60100
H1874       H  0.73189744  0.20159344  0.60604189     0.14400
H1875       H  0.77625597  0.21844257  0.51805526     0.46200
H1876       H  0.81587200  0.16322775  0.63163385     0.41600
H1877       H  0.72153530  0.23588991  0.64418400     0.45000
H1878       H  0.79426328  0.13407190  0.60145531     0.36500
C1879       C  0.30308150  0.75465676  0.87272063    -0.27700
C1880       C  0.31403593  0.77856920  0.87624174     0.01900
C1881       C  0.31971034  0.79339973  0.85499307     0.30000
C1882       C  0.31317765  0.78479958  0.83090232    -0.19500
C1883       C  0.30057195  0.76172945  0.82764854    -0.28900
C1884       C  0.29625596  0.74626862  0.84867325     0.44000
C1885       C  0.31865326  0.78831033  0.90205937     0.05200
O1886       O  0.33029111  0.81693109  0.85765793    -0.57400
H1887       H  0.31666584  0.79680733  0.81488771     0.18100
O1888       O  0.28351595  0.72379494  0.84613912    -0.64200
H1889       H  0.29898339  0.74282417  0.88875758     0.16600
C1890       C  0.29895012  0.78995090  0.91969627     0.28800
C1891       C  0.30348823  0.80090115  0.94335542    -0.25100
C1892       C  0.32763117  0.81017831  0.94990231    -0.24300
C1893       C  0.34755645  0.80728858  0.93253473     0.40300
C1894       C  0.34290049  0.79671195  0.90890991    -0.26800
O1895       O  0.27487719  0.78224762  0.91343816    -0.58700
H1896       H  0.28788424  0.80286253  0.95624360     0.15900
O1897       O  0.37178932  0.81480641  0.93830896    -0.60100
H1898       H  0.35836990  0.79510389  0.89579756     0.14400
H1899       H  0.29643865  0.71157971  0.84068406     0.46200
H1900       H  0.27252656  0.76584493  0.92201498     0.41600
H1901       H  0.37928708  0.80047921  0.94758163     0.45000
H1902       H  0.31580682  0.82839485  0.86011861     0.36500
C1903       C  0.18425268  0.73956481  0.86497578    -0.27700
C1904       C  0.19338445  0.71915017  0.87921265     0.01900
C1905       C  0.20878939  0.70137178  0.86738171     0.30000
C1906       C  0.21637422  0.70503179  0.84257892    -0.19500
C1907       C  0.20901899  0.72637436  0.82871954    -0.28900
C1908       C  0.19196427  0.74326482  0.83988995     0.44000
C1909       C  0.18693774  0.71595128  0.90628531     0.05200
O1910       O  0.21643635  0.68016701  0.87996336    -0.57400
H1911       H  0.22929552  0.69158023  0.83463417     0.18100
O1912       O  0.18419938  0.76433975  0.82727102    -0.64200
H1913       H  0.17191584  0.75317259  0.87363099     0.16600
C1914       C  0.20608064  0.71409999  0.92488248     0.28800
C1915       C  0.20010173  0.70641548  0.94940679    -0.25100
C1916       C  0.17505460  0.70055012  0.95589835    -0.24300
C1917       C  0.15569973  0.70458662  0.93779654     0.40300
C1918       C  0.16172438  0.71214889  0.91331461    -0.26800
O1919       O  0.23089453  0.71866308  0.91895823    -0.58700
H1920       H  0.21526386  0.70364396  0.96289866     0.15900
O1921       O  0.13080290  0.70009004  0.94348943    -0.60100
H1922       H  0.14672864  0.71377525  0.89943669     0.14400
H1923       H  0.16930833  0.75878266  0.81720918     0.46200
H1924       H  0.23309588  0.73715575  0.92046173     0.41600
H1925       H  0.12470061  0.71604698  0.95085948     0.45000
H1926       H  0.23483951  0.68250164  0.88304027     0.36500
C1927       C  0.18759504  0.85610730  0.72667180    -0.27700
C1928       C  0.19919228  0.87796260  0.73648525     0.01900
C1929       C  0.21522632  0.87560587  0.75764764     0.30000
C1930       C  0.22014309  0.85177826  0.76789843    -0.19500
C1931       C  0.21021085  0.82987708  0.75669733    -0.28900
C1932       C  0.19340061  0.83227447  0.73619125     0.44000
C1933       C  0.19522393  0.90270706  0.72371838     0.05200
O1934       O  0.22766511  0.89620081  0.76732930    -0.57400
H1935       H  0.23351525  0.85036726  0.78328350     0.18100
O1936       O  0.18361003  0.81136085  0.72437812    -0.64200
H1937       H  0.17463148  0.85739918  0.71089463     0.16600
C1938       C  0.19714267  0.90481322  0.69737077     0.28800
C1939       C  0.19162808  0.92761973  0.68540889    -0.25100
C1940       C  0.18468028  0.94885221  0.69924488    -0.24300
C1941       C  0.18368587  0.94721406  0.72558446     0.40300
C1942       C  0.18884299  0.92425605  0.73763267    -0.26800
O1943       O  0.20514233  0.88485357  0.68320696    -0.58700
H1944       H  0.19265635  0.92868864  0.66513067     0.15900
O1945       O  0.17668356  0.96761656  0.73961429    -0.60100
H1946       H  0.18706180  0.92311922  0.75783300     0.14400
H1947       H  0.16977776  0.80530074  0.73535113     0.46200
H1948       H  0.19018646  0.87940878  0.67316126     0.41600
H1949       H  0.15816912  0.96567301  0.74191942     0.45000
H1950       H  0.24492970  0.89533344  0.76024776     0.36500
C1951       C  0.29829501  0.86476137  0.78846419    -0.27700
C1952       C  0.30578139  0.88274942  0.77078922     0.01900
C1953       C  0.30531242  0.87626514  0.74515895     0.30000
C1954       C  0.29724453  0.85203151  0.73760232    -0.19500
C1955       C  0.28928244  0.83404743  0.75533752    -0.28900
C1956       C  0.28973024  0.84087302  0.78105667     0.44000
C1957       C  0.31412779  0.90794050  0.78003862     0.05200
O1958       O  0.31340460  0.89320365  0.72748826    -0.57400
H1959       H  0.29694954  0.84744156  0.71779732     0.18100
O1960       O  0.28152892  0.82446810  0.79921424    -0.64200
H1961       H  0.29851823  0.86948964  0.80825872     0.16600
C1962       C  0.29962936  0.92967969  0.77584886     0.28800
C1963       C  0.30537293  0.95210316  0.78883370    -0.25100
C1964       C  0.32594999  0.95353841  0.80574807    -0.24300
C1965       C  0.34139898  0.93196017  0.80855844     0.40300
C1966       C  0.33517748  0.90952028  0.79608939    -0.26800
O1967       O  0.27891165  0.92883100  0.76025063    -0.58700
H1968       H  0.29332623  0.96824993  0.78594445     0.15900
O1969       O  0.36214316  0.93205388  0.82418742    -0.60100
H1970       H  0.34656358  0.89297111  0.79947751     0.14400
H1971       H  0.26649450  0.83229739  0.80687832     0.46200
H1972       H  0.28443367  0.93704489  0.74449803     0.41600
H1973       H  0.37664051  0.93652303  0.81331012     0.45000
H1974       H  0.29787496  0.89866739  0.71854138     0.36500
C1975       C  0.33707278  0.71610648  0.58709702    -0.27700
C1976       C  0.31273894  0.72073749  0.59612155     0.01900
C1977       C  0.29174353  0.71617457  0.58010702     0.30000
C1978       C  0.29530412  0.70620786  0.55587922    -0.19500
C1979       C  0.31967292  0.70034197  0.54738769    -0.28900
C1980       C  0.34064513  0.70614343  0.56305240     0.44000
C1981       C  0.30945302  0.72836979  0.62285069     0.05200
O1982       O  0.26761529  0.72025865  0.58837948    -0.57400
H1983       H  0.27891946  0.70179126  0.54429267     0.18100
O1984       O  0.36483785  0.70154342  0.55526332    -0.64200
H1985       H  0.35341406  0.71971441  0.59901772     0.16600
C1986       C  0.31706717  0.71228999  0.64255310     0.28800
C1987       C  0.31143417  0.71831117  0.66756125    -0.25100
C1988       C  0.29831546  0.74034654  0.67344619    -0.24300
C1989       C  0.29227532  0.75724333  0.65392524     0.40300
C1990       C  0.29779921  0.75120145  0.62886492    -0.26800
O1991       O  0.32874594  0.68991621  0.63746092    -0.58700
H1992       H  0.31580024  0.70491868  0.68225278     0.15900
O1993       O  0.27956970  0.77903555  0.65908493    -0.60100
H1994       H  0.29212360  0.76395027  0.61402662     0.14400
H1995       H  0.37048075  0.71734212  0.54704479     0.46200
H1996       H  0.31499640  0.67828048  0.63197960     0.41600
H1997       H  0.26212826  0.77625717  0.65261094     0.45000
H1998       H  0.26265970  0.70456986  0.59720703     0.36500
C1999       C  0.19409184  0.75072754  0.63061032    -0.27700
C2000       C  0.19708863  0.77506086  0.62067128     0.01900
C2001       C  0.20450037  0.79481546  0.63677044     0.30000
C2002       C  0.20958441  0.79005811  0.66215302    -0.19500
C2003       C  0.20776610  0.76557589  0.67202558    -0.28900
C2004       C  0.19968282  0.74583446  0.65603463     0.44000
C2005       C  0.19244825  0.78013585  0.59358556     0.05200
O2006       O  0.20697929  0.81888873  0.62776064    -0.57400
H2007       H  0.21621078  0.80542578  0.67395067     0.18100
O2008       O  0.19879160  0.72149870  0.66459025    -0.64200
H2009       H  0.18837296  0.73534395  0.61841280     0.16600
C2010       C  0.21259164  0.78564488  0.57722514     0.28800
C2011       C  0.20763365  0.79422804  0.55271352    -0.25100
C2012       C  0.18264679  0.79768077  0.54425166    -0.24300
C2013       C  0.16255811  0.79084897  0.56028530     0.40300
C2014       C  0.16755760  0.78197356  0.58461310    -0.26800
O2015       O  0.23716567  0.78377323  0.58543455    -0.58700
H2016       H  0.22334234  0.79941844  0.54079245     0.15900
O2017       O  0.13790083  0.79281210  0.55231639    -0.60100
H2018       H  0.15189561  0.77758719  0.59690272     0.14400
H2019       H  0.21592430  0.71469862  0.66156983     0.46200
H2020       H  0.24272219  0.76688213  0.57994570     0.41600
H2021       H  0.13146872  0.80832394  0.56032930     0.45000
H2022       H  0.22526394  0.82106404  0.62423872     0.36500
C2023       C  0.30020153  0.62762841  0.70270338    -0.27700
C2024       C  0.31032498  0.61402333  0.72283758     0.01900
C2025       C  0.31620258  0.62655657  0.74545648     0.30000
C2026       C  0.31035398  0.65213325  0.74816091    -0.19500
C2027       C  0.29831078  0.66522017  0.72856694    -0.28900
C2028       C  0.29410906  0.65298825  0.70540736     0.44000
C2029       C  0.31387467  0.58664349  0.71981554     0.05200
O2030       O  0.32621864  0.61365693  0.76543620    -0.57400
H2031       H  0.31322311  0.66107945  0.76625209     0.18100
O2032       O  0.28195728  0.66512068  0.68607270    -0.64200
H2033       H  0.29607927  0.61826686  0.68504346     0.16600
C2034       C  0.29320233  0.57080189  0.71363900     0.28800
C2035       C  0.29731299  0.54564056  0.70710183    -0.25100
C2036       C  0.32197967  0.53624125  0.70588454    -0.24300
C2037       C  0.34251036  0.55179997  0.71322773     0.40300
C2038       C  0.33831395  0.57672866  0.72048024    -0.26800
O2039       O  0.26899268  0.57995693  0.71349836    -0.58700
H2040       H  0.28134750  0.53399046  0.70138256     0.15900
O2041       O  0.36679233  0.54287014  0.71299456    -0.60100
H2042       H  0.35432465  0.58872937  0.72526004     0.14400
H2043       H  0.29386259  0.66489787  0.67180301     0.46200
H2044       H  0.26463196  0.58256990  0.69555358     0.41600
H2045       H  0.37450186  0.54993082  0.69759147     0.45000
H2046       H  0.31148115  0.60594459  0.77401286     0.36500
C2047       C  0.18277266  0.62622574  0.75801907    -0.27700
C2048       C  0.19064611  0.61421104  0.78015376     0.01900
C2049       C  0.20611695  0.62720716  0.79737224     0.30000
C2050       C  0.21483255  0.65136020  0.79169668    -0.19500
C2051       C  0.20815725  0.66318949  0.76900267    -0.28900
C2052       C  0.19148593  0.65061963  0.75230978     0.44000
C2053       C  0.18318094  0.58794041  0.78531238     0.05200
O2054       O  0.21391561  0.61588558  0.81921291    -0.57400
H2055       H  0.22797243  0.66035564  0.80459639     0.18100
O2056       O  0.18490635  0.66123729  0.72976396    -0.64200
H2057       H  0.17060425  0.61633434  0.74478038     0.16600
C2058       C  0.16145082  0.58276670  0.79927667     0.28800
C2059       C  0.15584882  0.55806468  0.80629837    -0.25100
C2060       C  0.17219129  0.53805004  0.80039168    -0.24300
C2061       C  0.19389622  0.54333534  0.78595003     0.40300
C2062       C  0.19914486  0.56816560  0.77842559    -0.26800
O2063       O  0.14591982  0.60187945  0.80674958    -0.58700
H2064       H  0.13897115  0.55487560  0.81727786     0.15900
O2065       O  0.21039351  0.52465905  0.77955402    -0.60100
H2066       H  0.21617333  0.57214395  0.76790075     0.14400
H2067       H  0.19765361  0.65514088  0.71768499     0.46200
H2068       H  0.15198966  0.60662055  0.82377497     0.41600
H2069       H  0.22391909  0.52527929  0.79256041     0.45000
H2070       H  0.20196507  0.62165578  0.83212865     0.36500
loop_ 
_geom_bond_atom_site_label_1 
_geom_bond_atom_site_label_2 
_geom_bond_distance 
_geom_bond_site_symmetry_2 
_ccdc_geom_bond_type 
O1            C9   1.275       .  A
O1          Co21   1.989       .  S
O2           C10   1.273       .  A
O2          Co22   1.909       .  S
O3           C11   1.274       .  A
O3          Co23   2.002       .  S
O4           C12   1.264       .  A
O4          Co24   1.982       .  S
O5           C11   1.279       .  A
O5          Co22   2.003       .  S
O6           C12   1.272       .  A
O6          Co21   1.998       .  S
O7           C10   1.294       .  A
O7          Co24   2.105       .  S
O8            C9   1.274       .  A
O8          Co23   1.999       .  S
C9         C2051   1.480       .  S
C10        C1931   1.479       .  S
C11        C1907   1.496       .  S
C12        C2003   1.484       .  S
O13          C26   1.275       .  A
O13         Co21   2.008       .  S
O14          C27   1.266       .  A
O14         Co22   1.990       .  S
O15          C28   1.269       .  A
O15         Co23   1.979       .  S
O16          C29   1.270       .  A
O16         Co24   1.915       .  S
O17          C29   1.293       .  A
O17         Co22   2.108       .  S
O18          C28   1.270       .  A
O18         Co21   1.992       .  S
O19          C26   1.279       .  A
O19         Co24   1.996       .  S
O20          C27   1.270       .  A
O20         Co23   1.994       .  S
Co21         O25   2.045       .  S
Co22         O25   2.011       .  S
Co23         O25   2.032       .  S
Co24         O25   2.000       .  S
C26        C1988   1.478       .  S
C27        C1883   1.470       .  S
C28        C2027   1.473       .  S
C29        C1955   1.495       .  S
O30          C38   1.301       .  A
O30         Co50   2.129       .  S
O31          C39   1.271       .  A
O31         Co51   2.019       .  S
O32          C40   1.268       .  A
O32         Co52   1.972       .  S
O33          C41   1.258       .  A
O33         Co53   1.971       .  S
O34          C40   1.278       .  A
O34         Co51   2.034       .  S
O35          C41   1.262       .  A
O35         Co50   2.006       .  S
O36          C39   1.263       .  A
O36         Co53   1.967       .  S
O37          C38   1.260       .  A
O37         Co52   1.864       .  S
C38        C1868   1.476       .  S
C39        C1739   1.486       .  S
C40        C1715   1.495       .  S
C41        C1796   1.492       .  S
O42          C55   1.273       .  A
O42         Co50   1.981       .  S
O43          C56   1.256       .  A
O43         Co51   1.967       .  S
O44          C57   1.301       .  A
O44         Co52   2.122       .  S
O45          C58   1.273       .  A
O45         Co53   2.018       .  S
O46          C58   1.263       .  A
O46         Co51   1.969       .  S
O47          C57   1.264       .  A
O47         Co50   1.869       .  S
O48          C55   1.276       .  A
O48         Co53   2.024       .  S
O49          C56   1.260       .  A
O49         Co52   2.006       .  S
Co50         O54   2.020       .  S
Co51         O54   2.055       .  S
Co52         O54   2.008       .  S
Co53         O54   2.038       .  S
C55        C1820   1.493       .  S
C56        C1700   1.489       .  S
C57        C1835   1.475       .  S
C58        C1772   1.486       .  S
O59          C67   1.273       .  A
O59         Co79   1.994       .  S
O60          C68   1.266       .  A
O60         Co80   1.899       .  S
O61          C69   1.277       .  A
O61         Co81   2.016       .  S
O62          C70   1.265       .  A
O62         Co82   1.986       .  S
O63          C69   1.272       .  A
O63         Co80   1.976       .  S
O64          C70   1.272       .  A
O64         Co79   2.000       .  S
O65          C68   1.296       .  A
O65         Co82   2.112       .  S
O66          C67   1.270       .  A
O66         Co81   1.990       .  S
C67        C1643   1.485       .  S
C68        C1556   1.486       .  S
C69        C1532   1.470       .  S
C70        C1628   1.488       .  S
O71          C84   1.275       .  A
O71         Co79   2.010       .  S
O72          C85   1.263       .  A
O72         Co80   1.986       .  S
O73          C86   1.273       .  A
O73         Co81   1.988       .  S
O74          C87   1.270       .  A
O74         Co82   1.907       .  S
O75          C87   1.292       .  A
O75         Co80   2.097       .  S
O76          C86   1.273       .  A
O76         Co79   2.000       .  S
O77          C84   1.274       .  A
O77         Co82   1.987       .  S
O78          C85   1.270       .  A
O78         Co81   1.998       .  S
Co79         O83   2.041       .  S
Co80         O83   2.000       .  S
Co81         O83   2.039       .  S
Co82         O83   2.006       .  S
C84        C1595   1.472       .  S
C85        C1499   1.485       .  S
C86        C1667   1.482       .  S
C87        C1571   1.481       .  S
C88        C1484   1.487       .  S
C88          C89   1.416   1_545  A
C88          C93   1.417       .  A
C89        C1460   1.490       .  S
C89          C90   1.415       .  A
C90        C1388   1.488       .  S
C90          C91   1.412   1_564  A
C91        C1364   1.483       .  S
C91          C92   1.411       .  A
C92        C1427   1.489       .  S
C92          C93   1.413   1_556  A
C93        C1403   1.486   1_554  S
C94        C1523   1.495       .  S
C94          N95   1.360       .  A
C94          N99   1.367       .  A
N95          C96   1.355       .  A
C96        C1475   1.488       .  S
C96          N97   1.355   1_565  A
N97          C98   1.358       .  A
C98        C1331   1.485       .  S
C98          N99   1.365   1_545  A
C100       C1748   1.485       .  S
C100        N101   1.360       .  A
C100        N105   1.368       .  A
N101        C102   1.353       .  A
C102       C1412   1.472       .  S
C102        N103   1.352   1_556  A
N103        C104   1.357       .  A
C104       C1307   1.485       .  S
C104        N105   1.365   1_554  A
C106       C1964   1.500       .  S
C106        N107   1.369       .  A
C106        N111   1.358       .  A
N107        C108   1.368   1_565  A
C108       C1283   1.488       .  S
C108        N109   1.357       .  A
N109        C110   1.353   1_545  A
C110       C1355   1.475       .  S
C110        N111   1.354       .  A
C112       C1787   1.491       .  S
C112        N113   1.357       .  A
C112        N117   1.364       .  A
N113        C114   1.356       .  A
C114       C1436   1.497       .  S
C114        N115   1.362       .  A
N115        C116   1.364       .  A
C116       C1259   1.496       .  S
C116        N117   1.366       .  A
C118       C1235   1.485       .  S
C118        N119   1.361       .  A
C118        N123   1.360       .  A
N119        C120   1.360       .  A
C120       C1652   1.486       .  S
C120        N121   1.358       .  A
N121        C122   1.356       .  A
C122       C1451   1.469       .  S
C122        N123   1.357       .  A
C124       C1211   1.490       .  S
C124        N125   1.359       .  A
C124        N129   1.368   1_554  A
N125        C126   1.355   1_554  A
C126       C1379   1.489       .  S
C126        N127   1.353       .  A
N127        C128   1.356       .  A
C128       C1892   1.491       .  S
C128        N129   1.367       .  A
C130       C1163   1.480       .  S
C130        C131   1.406       .  A
C130        C135   1.406   1_556  A
C131       C1187   1.481       .  S
C131        C132   1.412   1_655  A
C132       C1067   1.482       .  S
C132        C133   1.413       .  A
C133       C1091   1.479       .  S
C133        C134   1.412   1_456  A
C134       C1115   1.485       .  S
C134        C135   1.406       .  A
C135       C1148   1.473       .  S
C136       C1916   1.493       .  S
C136        N137   1.373   1_556  A
C136        N141   1.356       .  A
N137        C138   1.373       .  A
C138       C1043   1.502       .  S
C138        N139   1.359       .  A
N139        C140   1.354   1_554  A
C140       C1100   1.480       .  S
C140        N141   1.351       .  A
C142       C2060   1.490       .  S
C142        N143   1.352       .  A
C142        N147   1.363       .  A
N143        C144   1.350       .  A
C144       C1076   1.482       .  S
C144        N145   1.357       .  A
N145        C146   1.363       .  A
C146       C1019   1.483       .  S
C146        N147   1.366       .  A
C148       C1547   1.486       .  S
C148        N149   1.364   1_655  A
C148        N153   1.356       .  A
N149        C150   1.365       .  A
C150        C995   1.495       .  S
C150        N151   1.361       .  A
N151        C152   1.357       .  A
C152       C1124   1.489       .  S
C152        N153   1.353   1_455  A
C154        C980   1.496       .  S
C154        N155   1.357       .  A
C154        N159   1.370       .  A
N155        C156   1.352       .  A
C156       C1139   1.479       .  S
C156        N157   1.351       .  A
N157        C158   1.356       .  A
C158       C1619   1.490       .  S
C158        N159   1.369       .  A
C160        C956   1.494       .  S
C160        N161   1.357       .  A
C160        N165   1.367   1_455  A
N161        C162   1.353   1_455  A
C162       C1196   1.478       .  S
C162        N163   1.353       .  A
N163        C164   1.358       .  A
C164       C1691   1.484       .  S
C164        N165   1.367       .  A
C166        C923   1.485       .  S
C166        N167   1.363   1_554  A
C166        N171   1.358       .  A
N167        C168   1.364       .  A
C168       C1763   1.484       .  S
C168        N169   1.357       .  A
N169        C170   1.355       .  A
C170       C1172   1.487       .  S
C170        N171   1.355   1_556  A
C172        C788   1.489       .  S
C172        C173   1.415       .  A
C172        C177   1.413       .  A
C173        C803   1.486       .  S
C173        C174   1.418       .  A
C174        C899   1.496       .  S
C174        C175   1.417       .  A
C175        C884   1.483       .  S
C175        C176   1.417       .  A
C176        C851   1.495       .  S
C176        C177   1.412       .  A
C177        C827   1.483       .  S
C178        C755   1.496       .  S
C178        N179   1.360       .  A
C178        N183   1.367       .  A
N179        C180   1.356       .  A
C180        C908   1.494       .  S
C180        N181   1.357       .  A
N181        C182   1.360       .  A
C182       C1811   1.495       .  S
C182        N183   1.366       .  A
C184       C1979   1.491       .  S
C184        N185   1.357       .  A
C184        N189   1.367       .  A
N185        C186   1.355       .  A
C186        C779   1.492       .  S
C186        N187   1.358       .  A
N187        C188   1.362       .  A
C188        C740   1.499       .  S
C188        N189   1.370       .  A
C190        C716   1.491       .  S
C190        N191   1.360       .  A
C190        N195   1.366       .  A
N191        C192   1.358       .  A
C192        C860   1.494       .  S
C192        N193   1.358       .  A
N193        C194   1.358       .  A
C194       C1604   1.488       .  S
C194        N195   1.366       .  A
C196       C1676   1.483       .  S
C196        N197   1.363       .  A
C196        N201   1.358       .  A
N197        C198   1.363       .  A
C198        C692   1.490       .  S
C198        N199   1.359       .  A
N199        C200   1.357       .  A
C200        C836   1.482       .  S
C200        N201   1.356       .  A
C202        C668   1.485       .  S
C202        N203   1.360       .  A
C202        N207   1.363       .  A
N203        C204   1.354       .  A
C204        C812   1.467       .  S
C204        N205   1.352       .  A
N205        C206   1.355       .  A
C206       C2036   1.475       .  S
C206        N207   1.363       .  A
C208        C635   1.489       .  S
C208        N209   1.359       .  A
C208        N213   1.366       .  A
N209        C210   1.354       .  A
C210        C875   1.466       .  S
C210        N211   1.351       .  A
N211        C212   1.356       .  A
C212       C1844   1.484       .  S
C212        N213   1.365       .  A
C214        C620   1.489       .  S
C214        C215   1.411   1_455  A
C214        C219   1.413       .  A
C215        C491   1.481       .  S
C215        C216   1.411       .  A
C216        C515   1.479       .  S
C216        C217   1.410   1_565  A
C217        C548   1.485       .  S
C217        C218   1.409       .  A
C218        C572   1.484       .  S
C218        C219   1.414   1_645  A
C219        C587   1.479       .  S
C220       C1724   1.491       .  S
C220        N221   1.370       .  A
C220        N225   1.363       .  A
N221        C222   1.367   1_655  A
C222        C476   1.500       .  S
C222        N223   1.357       .  A
N223        C224   1.352   1_455  A
C224        C563   1.491       .  S
C224        N225   1.357       .  A
C226        C443   1.482       .  S
C226        N227   1.356       .  A
C226        N231   1.364   1_545  A
N227        C228   1.356   1_545  A
C228        C596   1.479       .  S
C228        N229   1.357       .  A
N229        C230   1.359       .  A
C230       C1940   1.478       .  S
C230        N231   1.364       .  A
C232       C2012   1.489       .  S
C232        N233   1.358       .  A
C232        N237   1.365       .  A
N233        C234   1.357       .  A
C234        C611   1.496       .  S
C234        N235   1.359       .  A
N235        C236   1.362       .  A
C236        C428   1.490       .  S
C236        N237   1.367       .  A
C238       C1859   1.484       .  S
C238        N239   1.363       .  A
C238        N243   1.360       .  A
N239        C240   1.363       .  A
C240        C395   1.483       .  S
C240        N241   1.357       .  A
N241        C242   1.354       .  A
C242        C539   1.481       .  S
C242        N243   1.355       .  A
C244       C1508   1.488       .  S
C244        N245   1.352       .  A
C244        N249   1.368   1_565  A
N245        C246   1.351   1_565  A
C246        C524   1.485       .  S
C246        N247   1.357       .  A
N247        C248   1.363       .  A
C248        C380   1.499       .  S
C248        N249   1.372       .  A
C250       C1580   1.484       .  S
C250        N251   1.357       .  A
C250        N255   1.366   1_655  A
N251        C252   1.351   1_655  A
C252        C500   1.475       .  S
C252        N253   1.352       .  A
N253        C254   1.358       .  A
C254        C356   1.492       .  S
C254        N255   1.367       .  A
O256        C264   1.267       .  A
O256       Co276   1.997       .  S
O257        C265   1.275       .  A
O257       Co277   1.947       .  S
O258        C266   1.267       .  A
O258       Co278   1.995       .  S
O259        C267   1.289       .  A
O259       Co279   2.040       .  S
O260        C266   1.270       .  A
O260       Co277   1.996       .  S
O261        C267   1.276       .  A
O261       Co276   1.933       .  S
O262        C265   1.286       .  A
O262       Co279   2.030       .  S
O263        C264   1.266       .  A
O263       Co278   1.995       .  S
C264        C452   1.475       .  S
C265        C659   1.490       .  S
C266        C467   1.480       .  S
C267        C764   1.494       .  S
O268        C281   1.247       .  A
O268       Co276   1.975       .  S
O269        C282   1.267       .  A
O269       Co277   1.972       .  S
O270        C283   1.281       .  A
O270       Co278   2.009       .  S
O271        C284   1.256       .  A
O271       Co279   2.001       .  S
O272        C284   1.248       .  A
O272       Co277   1.968       .  S
O273        C283   1.273       .  A
O273       Co276   1.989       .  S
O274        C281   1.254       .  A
O274       Co279   2.011       .  S
O275        C282   1.281       .  A
O275       Co278   2.017       .  S
Co276       O280   1.957       .  S
Co277       O280   1.980       .  S
Co278       O280   2.100       .  S
Co279       O280   2.258       .  S
C281       C1268   1.498       .  S
C282        C947   1.485       .  S
C283       C1292   1.489       .  S
C284       C1028   1.487       .  S
O285        C293   1.256       .  A
O285       Co305   2.016       .  S
O286        C294   1.309       .  A
O286       Co306   2.091       .  S
O287        C295   1.263       .  A
O287       Co307   2.001       .  S
O288        C296   1.274       .  A
O288       Co308   1.992       .  S
O289        C295   1.278       .  A
O289       Co306   2.009       .  S
O290        C296   1.271       .  A
O290       Co305   1.984       .  S
O291        C294   1.280       .  A
O291       Co308   1.973       .  S
O292        C293   1.257       .  A
O292       Co307   1.984       .  S
C293        C371   1.488       .  S
C294        C971   1.491       .  S
C295        C932   1.492       .  S
C296        C404   1.473       .  S
O297        C310   1.273       .  A
O297       Co305   1.981       .  S
O298        C311   1.275       .  A
O298       Co306   1.930       .  S
O299        C312   1.304       .  A
O299       Co307   2.109       .  S
O300        C313   1.261       .  A
O300       Co308   1.991       .  S
O301        C313   1.264       .  A
O301       Co306   1.996       .  S
O302        C312   1.276       .  A
O302       Co305   1.891       .  S
O303        C310   1.277       .  A
O303       Co308   2.012       .  S
O304        C311   1.289       .  A
O304       Co307   2.056       .  S
Co305       O309   1.935       .  S
Co306       O309   1.934       .  S
Co307       O309   2.170       .  S
Co308       O309   2.064       .  S
C310        C644   1.473       .  S
C311       C1316   1.488       .  S
C312       C1340   1.479       .  S
C313        C707   1.492       .  S
O314        C322   1.276       .  A
O314       Co334   1.940       .  S
O315        C323   1.270       .  A
O315       Co335   1.995       .  S
O316        C324   1.294       .  A
O316       Co336   2.047       .  S
O317        C325   1.265       .  A
O317       Co337   2.002       .  S
O318        C324   1.275       .  A
O318       Co335   1.933       .  S
O319        C325   1.270       .  A
O319       Co334   2.001       .  S
O320        C323   1.265       .  A
O320       Co337   1.985       .  S
O321        C322   1.288       .  A
O321       Co336   2.034       .  S
C322        C683   1.493       .  S
C323       C1004   1.480       .  S
C324        C731   1.501       .  S
C325       C1052   1.482       .  S
O326        C339   1.272       .  A
O326       Co334   1.996       .  S
O327        C340   1.247       .  A
O327       Co335   1.971       .  S
O328        C341   1.255       .  A
O328       Co336   2.002       .  S
O329        C342   1.275       .  A
O329       Co337   1.991       .  S
O330        C342   1.270       .  A
O330       Co335   1.987       .  S
O331        C341   1.246       .  A
O331       Co334   1.960       .  S
O332        C339   1.276       .  A
O332       Co337   1.999       .  S
O333        C340   1.254       .  A
O333       Co336   2.007       .  S
Co334       O338   1.976       .  S
Co335       O338   1.962       .  S
Co336       O338   2.265       .  S
Co337       O338   2.094       .  S
C339       C1220   1.487       .  S
C340        C419   1.493       .  S
C341       C1244   1.483       .  S
C342        C347   1.468       .  S
C343        C344   1.404       .  A
C343        C348   1.403       .  A
C343        H353   1.083       .  S
C344        C349   1.482       .  S
C344        C345   1.410       .  A
C345        C346   1.398       .  A
C345        O350   1.373       .  S
C346        C347   1.401       .  A
C346        H351   1.083       .  S
C347        C348   1.409       .  A
C348        O352   1.372       .  S
C349        C354   1.403       .  A
C349        C358   1.405       .  A
O350        H366   0.992       .  S
O352        H363   0.991       .  S
C354        C355   1.395       .  A
C354        O359   1.372       .  S
C355        C356   1.410       .  A
C355        H360   1.083       .  S
C356        C357   1.414       .  A
C357        C358   1.406       .  A
C357        O361   1.371       .  S
C358        H362   1.084       .  S
O359        H364   0.991       .  S
O361        H365   0.992       .  S
C367        C368   1.409       .  A
C367        C372   1.408       .  A
C367        H377   1.083       .  S
C368        C373   1.503       .  S
C368        C369   1.413       .  A
C369        C370   1.405       .  A
C369        O374   1.372       .  S
C370        C371   1.405       .  A
C370        H375   1.083       .  S
C371        C372   1.411       .  A
C372        O376   1.371       .  S
C373        C378   1.413       .  A
C373        C382   1.405       .  A
O374        H390   0.992       .  S
O376        H387   0.991       .  S
C378        C379   1.408       .  A
C378        O383   1.369       .  S
C379        C380   1.405       .  A
C379        H384   1.083       .  S
C380        C381   1.417       .  A
C381        C382   1.405       .  A
C381        O385   1.371       .  S
C382        H386   1.083       .  S
O383        H388   0.991       .  S
O385        H389   0.992       .  S
C391        C392   1.397       .  A
C391        C396   1.400       .  A
C391        H401   1.084       .  S
C392        C397   1.473       .  S
C392        C393   1.408       .  A
C393        C394   1.399       .  A
C393        O398   1.372       .  S
C394        C395   1.404       .  A
C394        H399   1.083       .  S
C395        C396   1.416       .  A
C396        O400   1.372       .  S
C397        C402   1.407       .  A
C397        C406   1.398       .  A
O398        H414   0.991       .  S
O400        H411   0.992       .  S
C402        C403   1.404       .  A
C402        O407   1.371       .  S
C403        C404   1.406       .  A
C403        H408   1.083       .  S
C404        C405   1.410       .  A
C405        C406   1.393       .  A
C405        O409   1.373       .  S
C406        H410   1.084       .  S
O407        H412   0.992       .  S
O409        H413   0.992       .  S
C415        C416   1.406       .  A
C415        C420   1.407       .  A
C415        H425   1.083       .  S
C416        C421   1.494       .  S
C416        C417   1.408       .  A
C417        C418   1.401       .  A
C417        O422   1.372       .  S
C418        C419   1.407       .  A
C418        H423   1.082       .  S
C419        C420   1.415       .  A
C420        O424   1.371       .  S
C421        C426   1.411       .  A
C421        C430   1.404       .  A
O422        H438   0.992       .  S
O424        H435   0.991       .  S
C426        C427   1.406       .  A
C426        O431   1.370       .  S
C427        C428   1.405       .  A
C427        H432   1.083       .  S
C428        C429   1.412       .  A
C429        C430   1.404       .  A
C429        O433   1.372       .  S
C430        H434   1.083       .  S
O431        H436   0.991       .  S
O433        H437   0.992       .  S
C439        C440   1.407       .  A
C439        C444   1.404       .  A
C439        H449   1.083       .  S
C440        C445   1.489       .  S
C440        C441   1.409       .  A
C441        C442   1.401       .  A
C441        O446   1.372       .  S
C442        C443   1.405       .  A
C442        H447   1.084       .  S
C443        C444   1.408       .  A
C444        O448   1.371       .  S
C445        C450   1.407       .  A
C445        C454   1.411       .  A
O446        H462   0.992       .  S
O448        H459   0.992       .  S
C450        C451   1.395       .  A
C450        O455   1.372       .  S
C451        C452   1.405       .  A
C451        H456   1.085       .  S
C452        C453   1.406       .  A
C453        C454   1.409       .  A
C453        O457   1.371       .  S
C454        H458   1.083       .  S
O455        H460   0.992       .  S
O457        H461   0.991       .  S
C463        C464   1.401       .  A
C463        C468   1.398       .  A
C463        H473   1.084       .  S
C464        C469   1.487       .  S
C464        C465   1.409       .  A
C465        C466   1.410       .  A
C465        O470   1.371       .  S
C466        C467   1.407       .  A
C466        H471   1.084       .  S
C467        C468   1.411       .  A
C468        O472   1.372       .  S
C469        C474   1.402       .  A
C469        C478   1.408       .  A
O470        H486   0.992       .  S
O472        H483   0.992       .  S
C474        C475   1.397       .  A
C474        O479   1.372       .  S
C475        C476   1.411       .  A
C475        H480   1.082       .  S
C476        C477   1.415       .  A
C477        C478   1.412       .  A
C477        O481   1.371       .  S
C478        H482   1.083       .  S
O479        H484   0.992       .  S
O481        H485   0.992       .  S
C487        C488   1.402   1_455  A
C487        C492   1.398       .  A
C487        H497   1.084       .  S
C488        C493   1.477       .  S
C488        C489   1.408       .  A
C489        C490   1.400       .  A
C489        O494   1.372       .  S
C490        C491   1.401       .  A
C490        H495   1.083       .  S
C491        C492   1.405   1_655  A
C492        O496   1.373       .  S
C493        C498   1.407       .  A
C493        C502   1.402   1_655  A
O494        H510   0.992       .  S
O496        H507   0.992       .  S
C498        C499   1.398       .  A
C498        O503   1.372       .  S
C499        C500   1.404   1_655  A
C499        H504   1.084       .  S
C500        C501   1.411       .  A
C501        C502   1.398       .  A
C501        O505   1.372       .  S
C502        H506   1.084       .  S
O503        H508   0.992       .  S
O505        H509   0.992       .  S
C511        C512   1.403       .  A
C511        C516   1.397       .  A
C511        H521   1.083       .  S
C512        C517   1.476       .  S
C512        C513   1.407   1_565  A
C513        C514   1.397       .  A
C513        O518   1.371       .  S
C514        C515   1.401   1_545  A
C514        H519   1.083       .  S
C515        C516   1.405       .  A
C516        O520   1.371       .  S
C517        C522   1.403       .  A
C517        C526   1.403   1_565  A
O518        H534   0.992       .  S
O520        H531   0.991       .  S
C522        C523   1.395       .  A
C522        O527   1.372       .  S
C523        C524   1.409   1_565  A
C523        H528   1.083       .  S
C524        C525   1.412       .  A
C525        C526   1.402       .  A
C525        O529   1.371       .  S
C526        H530   1.084       .  S
O527        H532   0.992       .  S
O529        H533   0.992       .  S
C535        C536   1.401       .  A
C535        C540   1.398       .  A
C535        H545   1.084       .  S
C536        C541   1.480       .  S
C536        C537   1.408       .  A
C537        C538   1.401       .  A
C537        O542   1.372       .  S
C538        C539   1.406       .  A
C538        H543   1.083       .  S
C539        C540   1.412       .  A
C540        O544   1.372       .  S
C541        C546   1.408       .  A
C541        C550   1.404       .  A
O542        H558   0.992       .  S
O544        H555   0.992       .  S
C546        C547   1.399       .  A
C546        O551   1.371       .  S
C547        C548   1.401       .  A
C547        H552   1.082       .  S
C548        C549   1.406       .  A
C549        C550   1.399       .  A
C549        O553   1.372       .  S
C550        H554   1.084       .  S
O551        H556   0.991       .  S
O553        H557   0.991       .  S
C559        C560   1.399   1_455  A
C559        C564   1.398       .  A
C559        H569   1.084       .  S
C560        C565   1.481       .  S
C560        C561   1.408       .  A
C561        C562   1.404       .  A
C561        O566   1.371       .  S
C562        C563   1.409       .  A
C562        H567   1.083       .  S
C563        C564   1.416   1_655  A
C564        O568   1.372       .  S
C565        C570   1.409   1_655  A
C565        C574   1.403       .  A
O566        H582   0.992       .  S
O568        H579   0.992       .  S
C570        C571   1.399       .  A
C570        O575   1.372       .  S
C571        C572   1.401   1_455  A
C571        H576   1.083       .  S
C572        C573   1.406       .  A
C573        C574   1.402       .  A
C573        O577   1.372   1_545  S
C574        H578   1.083       .  S
O575        H580   0.992       .  S
O577        H581   0.991   1_565  S
C583        C584   1.402       .  A
C583        C588   1.399       .  A
C583        H593   1.083       .  S
C584        C589   1.476       .  S
C584        C585   1.409   1_565  A
C585        C586   1.398       .  A
C585        O590   1.372       .  S
C586        C587   1.400   1_545  A
C586        H591   1.084       .  S
C587        C588   1.406       .  A
C588        O592   1.371       .  S
C589        C594   1.406   1_565  A
C589        C598   1.403       .  A
O590        H606   0.992       .  S
O592        H603   0.990   1_455  S
C594        C595   1.395       .  A
C594        O599   1.372       .  S
C595        C596   1.404   1_545  A
C595        H600   1.084       .  S
C596        C597   1.412       .  A
C597        C598   1.402       .  A
C597        O601   1.372       .  S
C598        H602   1.084       .  S
O599        H604   0.992       .  S
O601        H605   0.992       .  S
C607        C608   1.403       .  A
C607        C612   1.404       .  A
C607        H617   1.084       .  S
C608        C613   1.487       .  S
C608        C609   1.407       .  A
C609        C610   1.400       .  A
C609        O614   1.372       .  S
C610        C611   1.410       .  A
C610        H615   1.083       .  S
C611        C612   1.416       .  A
C612        O616   1.371       .  S
C613        C618   1.410       .  A
C613        C622   1.405       .  A
O614        H630   0.992       .  S
O616        H627   0.992       .  S
C618        C619   1.402       .  A
C618        O623   1.371       .  S
C619        C620   1.402       .  A
C619        H624   1.083       .  S
C620        C621   1.406       .  A
C621        C622   1.402       .  A
C621        O625   1.372       .  S
C622        H626   1.083       .  S
O623        H628   0.992       .  S
O625        H629   0.991   1_455  S
C631        C632   1.403       .  A
C631        C636   1.403       .  A
C631        H641   1.084       .  S
C632        C637   1.482       .  S
C632        C633   1.404       .  A
C633        C634   1.403       .  A
C633        O638   1.372       .  S
C634        C635   1.410       .  A
C634        H639   1.084       .  S
C635        C636   1.412       .  A
C636        O640   1.371       .  S
C637        C642   1.409       .  A
C637        C646   1.403       .  A
O638        H654   0.991       .  S
O640        H651   0.992       .  S
C642        C643   1.402       .  A
C642        O647   1.372       .  S
C643        C644   1.402       .  A
C643        H648   1.082       .  S
C644        C645   1.408       .  A
C645        C646   1.403       .  A
C645        O649   1.372       .  S
C646        H650   1.083       .  S
O647        H652   0.992       .  S
O649        H653   0.992       .  S
C655        C656   1.403       .  A
C655        C660   1.406       .  A
C655        H665   1.084       .  S
C656        C661   1.484       .  S
C656        C657   1.406       .  A
C657        C658   1.399       .  A
C657        O662   1.373       .  S
C658        C659   1.406       .  A
C658        H663   1.082       .  S
C659        C660   1.415       .  A
C660        O664   1.371       .  S
C661        C666   1.407       .  A
C661        C670   1.404       .  A
O662        H678   0.992       .  S
O664        H675   0.992       .  S
C666        C667   1.397       .  A
C666        O671   1.372       .  S
C667        C668   1.406       .  A
C667        H672   1.084       .  S
C668        C669   1.413       .  A
C669        C670   1.406       .  A
C669        O673   1.371       .  S
C670        H674   1.084       .  S
O671        H676   0.991       .  S
O673        H677   0.992       .  S
C679        C680   1.402       .  A
C679        C684   1.401       .  A
C679        H689   1.084       .  S
C680        C685   1.490       .  S
C680        C681   1.409       .  A
C681        C682   1.407       .  A
C681        O686   1.372       .  S
C682        C683   1.408       .  A
C682        H687   1.083       .  S
C683        C684   1.414       .  A
C684        O688   1.371       .  S
C685        C690   1.409       .  A
C685        C694   1.402       .  A
O686        H702   0.991       .  S
O688        H699   0.992       .  S
C690        C691   1.404       .  A
C690        O695   1.369       .  S
C691        C692   1.406       .  A
C691        H696   1.083       .  S
C692        C693   1.415       .  A
C693        C694   1.401       .  A
C693        O697   1.371       .  S
C694        H698   1.084       .  S
O695        H700   0.991       .  S
O697        H701   0.992       .  S
C703        C704   1.401       .  A
C703        C708   1.399       .  A
C703        H713   1.084       .  S
C704        C709   1.493       .  S
C704        C705   1.412       .  A
C705        C706   1.410       .  A
C705        O710   1.372       .  S
C706        C707   1.407       .  A
C706        H711   1.083       .  S
C707        C708   1.415       .  A
C708        O712   1.373       .  S
C709        C714   1.408       .  A
C709        C718   1.408       .  A
O710        H726   0.992       .  S
O712        H723   0.992       .  S
C714        C715   1.403       .  A
C714        O719   1.371       .  S
C715        C716   1.408       .  A
C715        H720   1.084       .  S
C716        C717   1.411       .  A
C717        C718   1.405       .  A
C717        O721   1.371       .  S
C718        H722   1.084       .  S
O719        H724   0.992       .  S
O721        H725   0.991       .  S
C727        C728   1.407       .  A
C727        C732   1.409       .  A
C727        H737   1.082       .  S
C728        C733   1.505       .  S
C728        C729   1.413       .  A
C729        C730   1.405       .  A
C729        O734   1.372       .  S
C730        C731   1.406       .  A
C730        H735   1.082       .  S
C731        C732   1.416       .  A
C732        O736   1.371       .  S
C733        C738   1.414       .  A
C733        C742   1.405       .  A
O734        H750   0.992       .  S
O736        H747   0.991       .  S
C738        C739   1.411       .  A
C738        O743   1.371       .  S
C739        C740   1.405       .  A
C739        H744   1.083       .  S
C740        C741   1.415       .  A
C741        C742   1.404       .  A
C741        O745   1.372       .  S
C742        H746   1.083       .  S
O743        H748   0.991       .  S
O745        H749   0.992       .  S
C751        C752   1.408       .  A
C751        C756   1.406       .  A
C751        H761   1.082       .  S
C752        C757   1.497       .  S
C752        C753   1.410       .  A
C753        C754   1.401       .  A
C753        O758   1.372       .  S
C754        C755   1.409       .  A
C754        H759   1.083       .  S
C755        C756   1.412       .  A
C756        O760   1.371       .  S
C757        C762   1.412       .  A
C757        C766   1.405       .  A
O758        H774   0.992       .  S
O760        H771   0.992       .  S
C762        C763   1.404       .  A
C762        O767   1.371       .  S
C763        C764   1.407       .  A
C763        H768   1.083       .  S
C764        C765   1.414       .  A
C765        C766   1.402       .  A
C765        O769   1.371       .  S
C766        H770   1.083       .  S
O767        H772   0.992       .  S
O769        H773   0.992       .  S
C775        C776   1.400       .  A
C775        C780   1.400       .  A
C775        H785   1.084       .  S
C776        C781   1.480       .  S
C776        C777   1.405       .  A
C777        C778   1.403       .  A
C777        O782   1.371       .  S
C778        C779   1.409       .  A
C778        H783   1.083       .  S
C779        C780   1.417       .  A
C780        O784   1.372       .  S
C781        C786   1.406       .  A
C781        C790   1.404       .  A
O782        H798   0.990       .  S
O784        H795   0.992       .  S
C786        C787   1.396       .  A
C786        O791   1.371       .  S
C787        C788   1.402       .  A
C787        H792   1.082       .  S
C788        C789   1.408       .  A
C789        C790   1.403       .  A
C789        O793   1.371       .  S
C790        H794   1.083       .  S
O791        H796   0.992       .  S
O793        H797   0.991       .  S
C799        C800   1.404       .  A
C799        C804   1.399       .  A
C799        H809   1.083       .  S
C800        C805   1.482       .  S
C800        C801   1.409       .  A
C801        C802   1.397       .  A
C801        O806   1.372       .  S
C802        C803   1.403       .  A
C802        H807   1.084       .  S
C803        C804   1.406       .  A
C804        O808   1.373       .  S
C805        C810   1.411       .  A
C805        C814   1.405       .  A
O806        H822   0.992       .  S
O808        H819   0.992       .  S
C810        C811   1.400       .  A
C810        O815   1.373       .  S
C811        C812   1.401       .  A
C811        H816   1.084       .  S
C812        C813   1.405       .  A
C813        C814   1.397       .  A
C813        O817   1.372       .  S
C814        H818   1.083       .  S
O815        H820   0.992       .  S
O817        H821   0.992       .  S
C823        C824   1.404       .  A
C823        C828   1.398       .  A
C823        H833   1.084       .  S
C824        C829   1.483       .  S
C824        C825   1.411       .  A
C825        C826   1.401       .  A
C825        O830   1.372       .  S
C826        C827   1.401       .  A
C826        H831   1.083       .  S
C827        C828   1.404       .  A
C828        O832   1.372       .  S
C829        C834   1.408       .  A
C829        C838   1.403       .  A
O830        H846   0.992       .  S
O832        H843   0.991       .  S
C834        C835   1.400       .  A
C834        O839   1.371       .  S
C835        C836   1.405       .  A
C835        H840   1.084       .  S
C836        C837   1.412       .  A
C837        C838   1.399       .  A
C837        O841   1.372       .  S
C838        H842   1.084       .  S
O839        H844   0.992       .  S
O841        H845   0.992       .  S
C847        C848   1.407       .  A
C847        C852   1.402       .  A
C847        H857   1.083       .  S
C848        C853   1.491       .  S
C848        C849   1.411       .  A
C849        C850   1.401       .  A
C849        O854   1.371       .  S
C850        C851   1.404       .  A
C850        H855   1.083       .  S
C851        C852   1.406       .  A
C852        O856   1.371       .  S
C853        C858   1.409       .  A
C853        C862   1.405       .  A
O854        H870   0.992       .  S
O856        H867   0.991       .  S
C858        C859   1.401       .  A
C858        O863   1.373       .  S
C859        C860   1.408       .  A
C859        H864   1.083       .  S
C860        C861   1.416       .  A
C861        C862   1.403       .  A
C861        O865   1.371       .  S
C862        H866   1.083       .  S
O863        H868   0.992       .  S
O865        H869   0.992       .  S
C871        C872   1.405       .  A
C871        C876   1.396       .  A
C871        H881   1.083       .  S
C872        C877   1.481       .  S
C872        C873   1.410       .  A
C873        C874   1.398       .  A
C873        O878   1.372       .  S
C874        C875   1.402       .  A
C874        H879   1.084       .  S
C875        C876   1.404       .  A
C876        O880   1.372       .  S
C877        C882   1.410       .  A
C877        C886   1.405       .  A
O878        H894   0.992       .  S
O880        H891   0.992       .  S
C882        C883   1.393       .  A
C882        O887   1.371       .  S
C883        C884   1.400       .  A
C883        H888   1.083       .  S
C884        C885   1.408       .  A
C885        C886   1.398       .  A
C885        O889   1.371       .  S
C886        H890   1.083       .  S
O887        H892   0.992       .  S
O889        H893   0.991       .  S
C895        C896   1.405       .  A
C895        C900   1.403       .  A
C895        H905   1.083       .  S
C896        C901   1.489       .  S
C896        C897   1.411       .  A
C897        C898   1.400       .  A
C897        O902   1.371       .  S
C898        C899   1.403       .  A
C898        H903   1.083       .  S
C899        C900   1.410       .  A
C900        O904   1.372       .  S
C901        C906   1.408       .  A
C901        C910   1.403       .  A
O902        H918   0.992       .  S
O904        H915   0.991       .  S
C906        C907   1.403       .  A
C906        O911   1.372       .  S
C907        C908   1.409       .  A
C907        H912   1.083       .  S
C908        C909   1.415       .  A
C909        C910   1.401       .  A
C909        O913   1.371       .  S
C910        H914   1.084       .  S
O911        H916   0.992       .  S
O913        H917   0.992       .  S
C919        C920   1.404       .  A
C919        C924   1.405       .  A
C919        H929   1.083       .  S
C920        C925   1.480       .  S
C920        C921   1.404       .  A
C921        C922   1.399       .  A
C921        O926   1.372       .  S
C922        C923   1.407       .  A
C922        H927   1.084       .  S
C923        C924   1.411       .  A
C924        O928   1.371       .  S
C925        C930   1.404       .  A
C925        C934   1.401       .  A
O926        H942   0.992       .  S
O928        H939   0.992       .  S
C930        C931   1.401       .  A
C930        O935   1.372       .  S
C931        C932   1.408       .  A
C931        H936   1.081       .  S
C932        C933   1.416       .  A
C933        C934   1.403       .  A
C933        O937   1.371       .  S
C934        H938   1.084       .  S
O935        H940   0.992       .  S
O937        H941   0.991       .  S
C943        C944   1.396       .  A
C943        C948   1.395       .  A
C943        H953   1.084       .  S
C944        C949   1.481       .  S
C944        C945   1.410       .  A
C945        C946   1.409       .  A
C945        O950   1.371       .  S
C946        C947   1.406       .  A
C946        H951   1.083       .  S
C947        C948   1.417       .  A
C948        O952   1.374       .  S
C949        C954   1.401       .  A
C949        C958   1.406       .  A
O950        H966   0.991       .  S
O952        H963   0.992       .  S
C954        C955   1.399       .  A
C954        O959   1.372       .  S
C955        C956   1.412       .  A
C955        H960   1.083       .  S
C956        C957   1.413       .  A
C957        C958   1.406       .  A
C957        O961   1.371       .  S
C958        H962   1.084       .  S
O959        H964   0.992       .  S
O961        H965   0.992       .  S
C967        C968   1.396       .  A
C967        C972   1.394       .  A
C967        H977   1.084       .  S
C968        C973   1.485       .  S
C968        C969   1.411       .  A
C969        C970   1.411       .  A
C969        O974   1.372       .  S
C970        C971   1.407       .  A
C970        H975   1.083       .  S
C971        C972   1.418       .  A
C972        O976   1.372       .  S
C973        C978   1.403       .  A
C973        C982   1.407       .  A
O974        H990   0.992       .  S
O976        H987   0.991       .  S
C978        C979   1.398       .  A
C978        O983   1.372       .  S
C979        C980   1.413       .  A
C979        H984   1.082       .  S
C980        C981   1.412       .  A
C981        C982   1.406       .  A
C981        O985   1.371       .  S
C982        H986   1.084       .  S
O983        H988   0.992       .  S
O985        H989   0.992       .  S
C991        C992   1.403       .  A
C991        C996   1.406       .  A
C991       H1001   1.084       .  S
C992        C997   1.479       .  S
C992        C993   1.402       .  A
C993        C994   1.399       .  A
C993        O998   1.372       .  S
C994        C995   1.411       .  A
C994        H999   1.083       .  S
C995        C996   1.415       .  A
C996       O1000   1.371       .  S
C997       C1002   1.402       .  A
C997       C1006   1.406       .  A
O998       H1014   0.992       .  S
O1000      H1011   0.992       .  S
C1002      C1003   1.392       .  A
C1002      O1007   1.372       .  S
C1003      C1004   1.407       .  A
C1003      H1008   1.084       .  S
C1004      C1005   1.411       .  A
C1005      C1006   1.411       .  A
C1005      O1009   1.371       .  S
C1006      H1010   1.083       .  S
O1007      H1012   0.992       .  S
O1009      H1013   0.992       .  S
C1015      C1016   1.405       .  A
C1015      C1020   1.403       .  A
C1015      H1025   1.084       .  S
C1016      C1021   1.487       .  S
C1016      C1017   1.408       .  A
C1017      C1018   1.403       .  A
C1017      O1022   1.373       .  S
C1018      C1019   1.406       .  A
C1018      H1023   1.084       .  S
C1019      C1020   1.409       .  A
C1020      O1024   1.371       .  S
C1021      C1026   1.408       .  A
C1021      C1030   1.405       .  A
O1022      H1038   0.992       .  S
O1024      H1035   0.992       .  S
C1026      C1027   1.398       .  A
C1026      O1031   1.372       .  S
C1027      C1028   1.408       .  A
C1027      H1032   1.084       .  S
C1028      C1029   1.412       .  A
C1029      C1030   1.404       .  A
C1029      O1033   1.371       .  S
C1030      H1034   1.084       .  S
O1031      H1036   0.992       .  S
O1033      H1037   0.991       .  S
C1039      C1040   1.401       .  A
C1039      C1044   1.402       .  A
C1039      H1049   1.084       .  S
C1040      C1045   1.502       .  S
C1040      C1041   1.415       .  A
C1041      C1042   1.411       .  A
C1041      O1046   1.371       .  S
C1042      C1043   1.407       .  A
C1042      H1047   1.083       .  S
C1043      C1044   1.420       .  A
C1044      O1048   1.372       .  S
C1045      C1050   1.415       .  A
C1045      C1054   1.406       .  A
O1046      H1062   0.992       .  S
O1048      H1059   0.992       .  S
C1050      C1051   1.406       .  A
C1050      O1055   1.372       .  S
C1051      C1052   1.401       .  A
C1051      H1056   1.080       .  S
C1052      C1053   1.411       .  A
C1053      C1054   1.407       .  A
C1053      O1057   1.371       .  S
C1054      H1058   1.083       .  S
O1055      H1060   0.992       .  S
O1057      H1061   0.992       .  S
C1063      C1064   1.400       .  A
C1063      C1068   1.398       .  A
C1063      H1073   1.084       .  S
C1064      C1069   1.470       .  S
C1064      C1065   1.406       .  A
C1065      C1066   1.398       .  A
C1065      O1070   1.372       .  S
C1066      C1067   1.403       .  A
C1066      H1071   1.084       .  S
C1067      C1068   1.407       .  A
C1068      O1072   1.372       .  S
C1069      C1074   1.402       .  A
C1069      C1078   1.402       .  A
O1070      H1086   0.992       .  S
O1072      H1083   0.991       .  S
C1074      C1075   1.394       .  A
C1074      O1079   1.372       .  S
C1075      C1076   1.410       .  A
C1075      H1080   1.083       .  S
C1076      C1077   1.411       .  A
C1077      C1078   1.402       .  A
C1077      O1081   1.371       .  S
C1078      H1082   1.084       .  S
O1079      H1084   0.992       .  S
O1081      H1085   0.992       .  S
C1087      C1088   1.404   1_554  A
C1087      C1092   1.398       .  A
C1087      H1097   1.083       .  S
C1088      C1093   1.479       .  S
C1088      C1089   1.409       .  A
C1089      C1090   1.397       .  A
C1089      O1094   1.372       .  S
C1090      C1091   1.401       .  A
C1090      H1095   1.084       .  S
C1091      C1092   1.404   1_556  A
C1092      O1096   1.373       .  S
C1093      C1098   1.408   1_556  A
C1093      C1102   1.402       .  A
O1094      H1110   0.992       .  S
O1096      H1107   0.991       .  S
C1098      C1099   1.399       .  A
C1098      O1103   1.373       .  S
C1099      C1100   1.404   1_554  A
C1099      H1104   1.084       .  S
C1100      C1101   1.412       .  A
C1101      C1102   1.399       .  A
C1101      O1105   1.372       .  S
C1102      H1106   1.084       .  S
O1103      H1108   0.992       .  S
O1105      H1109   0.992       .  S
C1111      C1112   1.403   1_655  A
C1111      C1116   1.401       .  A
C1111      H1121   1.084       .  S
C1112      C1117   1.478       .  S
C1112      C1113   1.407       .  A
C1113      C1114   1.399       .  A
C1113      O1118   1.372       .  S
C1114      C1115   1.403   1_455  A
C1114      H1119   1.083       .  S
C1115      C1116   1.406       .  A
C1116      O1120   1.373       .  S
C1117      C1122   1.406       .  A
C1117      C1126   1.400   1_455  A
O1118      H1134   0.992       .  S
O1120      H1131   0.992       .  S
C1122      C1123   1.399       .  A
C1122      O1127   1.372       .  S
C1123      C1124   1.408       .  A
C1123      H1128   1.083       .  S
C1124      C1125   1.417   1_455  A
C1125      C1126   1.398       .  A
C1125      O1129   1.372       .  S
C1126      H1130   1.084       .  S
O1127      H1132   0.992       .  S
O1129      H1133   0.992       .  S
C1135      C1136   1.401       .  A
C1135      C1140   1.396       .  A
C1135      H1145   1.084       .  S
C1136      C1141   1.472       .  S
C1136      C1137   1.405       .  A
C1137      C1138   1.396       .  A
C1137      O1142   1.372       .  S
C1138      C1139   1.407       .  A
C1138      H1143   1.083       .  S
C1139      C1140   1.412       .  A
C1140      O1144   1.372       .  S
C1141      C1146   1.409       .  A
C1141      C1150   1.402       .  A
O1142      H1158   0.992       .  S
O1144      H1155   0.992       .  S
C1146      C1147   1.393       .  A
C1146      O1151   1.372       .  S
C1147      C1148   1.398       .  A
C1147      H1152   1.084       .  S
C1148      C1149   1.404       .  A
C1149      C1150   1.396       .  A
C1149      O1153   1.372       .  S
C1150      H1154   1.083       .  S
O1151      H1156   0.992       .  S
O1153      H1157   0.991       .  S
C1159      C1160   1.404   1_554  A
C1159      C1164   1.400       .  A
C1159      H1169   1.084       .  S
C1160      C1165   1.479       .  S
C1160      C1161   1.408       .  A
C1161      C1162   1.397       .  A
C1161      O1166   1.373       .  S
C1162      C1163   1.400       .  A
C1162      H1167   1.083       .  S
C1163      C1164   1.404   1_556  A
C1164      O1168   1.373       .  S
C1165      C1170   1.407       .  A
C1165      C1174   1.402   1_556  A
O1166      H1182   0.992       .  S
O1168      H1179   0.991       .  S
C1170      C1171   1.396       .  A
C1170      O1175   1.372       .  S
C1171      C1172   1.408       .  A
C1171      H1176   1.083       .  S
C1172      C1173   1.415   1_556  A
C1173      C1174   1.399       .  A
C1173      O1177   1.371       .  S
C1174      H1178   1.084       .  S
O1175      H1180   0.991       .  S
O1177      H1181   0.992       .  S
C1183      C1184   1.404   1_455  A
C1183      C1188   1.397       .  A
C1183      H1193   1.084       .  S
C1184      C1189   1.480       .  S
C1184      C1185   1.409       .  A
C1185      C1186   1.399       .  A
C1185      O1190   1.372       .  S
C1186      C1187   1.402       .  A
C1186      H1191   1.083       .  S
C1187      C1188   1.403   1_655  A
C1188      O1192   1.372       .  S
C1189      C1194   1.408   1_655  A
C1189      C1198   1.404       .  A
O1190      H1206   0.991       .  S
O1192      H1203   0.991       .  S
C1194      C1195   1.395       .  A
C1194      O1199   1.372       .  S
C1195      C1196   1.404   1_455  A
C1195      H1200   1.084       .  S
C1196      C1197   1.411       .  A
C1197      C1198   1.401       .  A
C1197      O1201   1.372       .  S
C1198      H1202   1.084       .  S
O1199      H1204   0.992       .  S
O1201      H1205   0.992       .  S
C1207      C1208   1.399       .  A
C1207      C1212   1.401       .  A
C1207      H1217   1.084       .  S
C1208      C1213   1.485       .  S
C1208      C1209   1.410       .  A
C1209      C1210   1.406       .  A
C1209      O1214   1.372       .  S
C1210      C1211   1.406       .  A
C1210      H1215   1.083       .  S
C1211      C1212   1.416       .  A
C1212      O1216   1.372       .  S
C1213      C1218   1.405       .  A
C1213      C1222   1.405       .  A
O1214      H1230   0.992       .  S
O1216      H1227   0.992       .  S
C1218      C1219   1.400       .  A
C1218      O1223   1.373       .  S
C1219      C1220   1.407       .  A
C1219      H1224   1.084       .  S
C1220      C1221   1.413       .  A
C1221      C1222   1.408       .  A
C1221      O1225   1.371       .  S
C1222      H1226   1.083       .  S
O1223      H1228   0.991       .  S
O1225      H1229   0.992       .  S
C1231      C1232   1.405       .  A
C1231      C1236   1.401       .  A
C1231      H1241   1.084       .  S
C1232      C1237   1.490       .  S
C1232      C1233   1.411       .  A
C1233      C1234   1.401       .  A
C1233      O1238   1.372       .  S
C1234      C1235   1.404       .  A
C1234      H1239   1.084       .  S
C1235      C1236   1.412       .  A
C1236      O1240   1.371       .  S
C1237      C1242   1.411       .  A
C1237      C1246   1.403       .  A
O1238      H1254   0.991       .  S
O1240      H1251   0.991       .  S
C1242      C1243   1.404       .  A
C1242      O1247   1.370       .  S
C1243      C1244   1.406       .  A
C1243      H1248   1.084       .  S
C1244      C1245   1.413       .  A
C1245      C1246   1.397       .  A
C1245      O1249   1.372       .  S
C1246      H1250   1.084       .  S
O1247      H1252   0.991       .  S
O1249      H1253   0.992       .  S
C1255      C1256   1.405       .  A
C1255      C1260   1.406       .  A
C1255      H1265   1.083       .  S
C1256      C1261   1.498       .  S
C1256      C1257   1.411       .  A
C1257      C1258   1.407       .  A
C1257      O1262   1.371       .  S
C1258      C1259   1.407       .  A
C1258      H1263   1.083       .  S
C1259      C1260   1.414       .  A
C1260      O1264   1.372       .  S
C1261      C1266   1.409       .  A
C1261      C1270   1.407       .  A
O1262      H1278   0.991       .  S
O1264      H1275   0.992       .  S
C1266      C1267   1.403       .  A
C1266      O1271   1.372       .  S
C1267      C1268   1.409       .  A
C1267      H1272   1.083       .  S
C1268      C1269   1.415       .  A
C1269      C1270   1.410       .  A
C1269      O1273   1.372       .  S
C1270      H1274   1.083       .  S
O1271      H1276   0.992       .  S
O1273      H1277   0.992       .  S
C1279      C1280   1.400       .  A
C1279      C1284   1.405       .  A
C1279      H1289   1.084       .  S
C1280      C1285   1.485       .  S
C1280      C1281   1.410       .  A
C1281      C1282   1.402       .  A
C1281      O1286   1.371       .  S
C1282      C1283   1.403       .  A
C1282      H1287   1.083       .  S
C1283      C1284   1.417       .  A
C1284      O1288   1.373       .  S
C1285      C1290   1.409       .  A
C1285      C1294   1.398       .  A
O1286      H1302   0.991       .  S
O1288      H1299   0.992       .  S
C1290      C1291   1.411       .  A
C1290      O1295   1.371       .  S
C1291      C1292   1.408       .  A
C1291      H1296   1.083       .  S
C1292      C1293   1.415       .  A
C1293      C1294   1.396       .  A
C1293      O1297   1.373       .  S
C1294      H1298   1.084       .  S
O1295      H1300   0.992       .  S
O1297      H1301   0.992       .  S
C1303      C1304   1.398       .  A
C1303      C1308   1.399       .  A
C1303      H1313   1.084       .  S
C1304      C1309   1.481       .  S
C1304      C1305   1.409       .  A
C1305      C1306   1.408       .  A
C1305      O1310   1.371       .  S
C1306      C1307   1.406       .  A
C1306      H1311   1.083       .  S
C1307      C1308   1.413       .  A
C1308      O1312   1.373       .  S
C1309      C1314   1.405       .  A
C1309      C1318   1.401       .  A
O1310      H1326   0.991       .  S
O1312      H1323   0.992       .  S
C1314      C1315   1.405       .  A
C1314      O1319   1.371       .  S
C1315      C1316   1.410       .  A
C1315      H1320   1.083       .  S
C1316      C1317   1.411       .  A
C1317      C1318   1.400       .  A
C1317      O1321   1.370       .  S
C1318      H1322   1.084       .  S
O1319      H1324   0.991       .  S
O1321      H1325   0.992       .  S
C1327      C1328   1.408       .  A
C1327      C1332   1.407       .  A
C1327      H1337   1.079       .  S
C1328      C1333   1.493       .  S
C1328      C1329   1.408       .  A
C1329      C1330   1.398       .  A
C1329      O1334   1.371       .  S
C1330      C1331   1.406       .  A
C1330      H1335   1.084       .  S
C1331      C1332   1.409       .  A
C1332      O1336   1.372       .  S
C1333      C1338   1.411       .  A
C1333      C1342   1.406       .  A
O1334      H1350   0.992       .  S
O1336      H1347   0.992       .  S
C1338      C1339   1.405       .  A
C1338      O1343   1.371       .  S
C1339      C1340   1.406       .  A
C1339      H1344   1.084       .  S
C1340      C1341   1.405       .  A
C1341      C1342   1.401       .  A
C1341      O1345   1.372       .  S
C1342      H1346   1.083       .  S
O1343      H1348   0.991       .  S
O1345      H1349   0.991       .  S
C1351      C1352   1.403   1_565  A
C1351      C1356   1.397       .  A
C1351      H1361   1.084       .  S
C1352      C1357   1.481       .  S
C1352      C1353   1.409       .  A
C1353      C1354   1.399       .  A
C1353      O1358   1.372       .  S
C1354      C1355   1.405   1_545  A
C1354      H1359   1.084       .  S
C1355      C1356   1.409       .  A
C1356      O1360   1.372       .  S
C1357      C1362   1.410       .  A
C1357      C1366   1.404   1_545  A
O1358      H1374   0.992       .  S
O1360      H1371   0.992       .  S
C1362      C1363   1.398       .  A
C1362      O1367   1.373       .  S
C1363      C1364   1.401       .  A
C1363      H1368   1.083       .  S
C1364      C1365   1.405   1_545  A
C1365      C1366   1.399       .  A
C1365      O1369   1.373       .  S
C1366      H1370   1.084       .  S
O1367      H1372   0.992       .  S
O1369      H1373   0.991       .  S
C1375      C1376   1.400   1_556  A
C1375      C1380   1.397       .  A
C1375      H1385   1.084       .  S
C1376      C1381   1.480       .  S
C1376      C1377   1.407       .  A
C1377      C1378   1.400       .  A
C1377      O1382   1.372       .  S
C1378      C1379   1.408   1_554  A
C1378      H1383   1.083       .  S
C1379      C1380   1.416       .  A
C1380      O1384   1.370       .  S
C1381      C1386   1.408   1_554  A
C1381      C1390   1.403       .  A
O1382      H1398   0.992       .  S
O1384      H1395   0.992       .  S
C1386      C1387   1.399       .  A
C1386      O1391   1.372       .  S
C1387      C1388   1.403   1_556  A
C1387      H1392   1.083       .  S
C1388      C1389   1.406       .  A
C1389      C1390   1.400       .  A
C1389      O1393   1.373       .  S
C1390      H1394   1.083       .  S
O1391      H1396   0.992       .  S
O1393      H1397   0.992   1_564  S
C1399      C1400   1.404   1_554  A
C1399      C1404   1.399       .  A
C1399      H1409   1.084       .  S
C1400      C1405   1.480       .  S
C1400      C1401   1.408       .  A
C1401      C1402   1.400       .  A
C1401      O1406   1.372       .  S
C1402      C1403   1.403       .  A
C1402      H1407   1.084       .  S
C1403      C1404   1.406   1_556  A
C1404      O1408   1.371       .  S
C1405      C1410   1.409       .  A
C1405      C1414   1.403   1_556  A
O1406      H1422   0.992       .  S
O1408      H1419   0.991       .  S
C1410      C1411   1.400       .  A
C1410      O1415   1.372       .  S
C1411      C1412   1.403       .  A
C1411      H1416   1.084       .  S
C1412      C1413   1.407   1_556  A
C1413      C1414   1.398       .  A
C1413      O1417   1.372       .  S
C1414      H1418   1.084       .  S
O1415      H1420   0.992       .  S
O1417      H1421   0.992       .  S
C1423      C1424   1.405       .  A
C1423      C1428   1.402       .  A
C1423      H1433   1.083       .  S
C1424      C1429   1.490       .  S
C1424      C1425   1.412       .  A
C1425      C1426   1.400       .  A
C1425      O1430   1.371       .  S
C1426      C1427   1.401       .  A
C1426      H1431   1.084       .  S
C1427      C1428   1.406       .  A
C1428      O1432   1.371       .  S
C1429      C1434   1.409       .  A
C1429      C1438   1.402       .  A
O1430      H1446   0.992       .  S
O1432      H1443   0.991       .  S
C1434      C1435   1.405       .  A
C1434      O1439   1.372       .  S
C1435      C1436   1.409       .  A
C1435      H1440   1.083       .  S
C1436      C1437   1.418       .  A
C1437      C1438   1.400       .  A
C1437      O1441   1.372       .  S
C1438      H1442   1.084       .  S
O1439      H1444   0.992       .  S
O1441      H1445   0.992       .  S
C1447      C1448   1.405       .  A
C1447      C1452   1.400       .  A
C1447      H1457   1.084       .  S
C1448      C1453   1.482       .  S
C1448      C1449   1.409       .  A
C1449      C1450   1.399       .  A
C1449      O1454   1.372       .  S
C1450      C1451   1.402       .  A
C1450      H1455   1.084       .  S
C1451      C1452   1.405       .  A
C1452      O1456   1.372       .  S
C1453      C1458   1.407       .  A
C1453      C1462   1.405       .  A
O1454      H1470   0.992       .  S
O1456      H1467   0.992       .  S
C1458      C1459   1.397       .  A
C1458      O1463   1.371       .  S
C1459      C1460   1.403       .  A
C1459      H1464   1.083       .  S
C1460      C1461   1.409       .  A
C1461      C1462   1.400       .  A
C1461      O1465   1.372       .  S
C1462      H1466   1.083       .  S
O1463      H1468   0.992       .  S
O1465      H1469   0.991       .  S
C1471      C1472   1.401   1_565  A
C1471      C1476   1.400       .  A
C1471      H1481   1.084       .  S
C1472      C1477   1.479       .  S
C1472      C1473   1.405       .  A
C1473      C1474   1.400       .  A
C1473      O1478   1.372       .  S
C1474      C1475   1.409   1_545  A
C1474      H1479   1.083       .  S
C1475      C1476   1.414       .  A
C1476      O1480   1.372       .  S
C1477      C1482   1.408   1_545  A
C1477      C1486   1.402       .  A
O1478      H1494   0.992       .  S
O1480      H1491   0.992       .  S
C1482      C1483   1.399       .  A
C1482      O1487   1.371       .  S
C1483      C1484   1.403   1_565  A
C1483      H1488   1.083       .  S
C1484      C1485   1.408       .  A
C1485      C1486   1.401       .  A
C1485      O1489   1.372       .  S
C1486      H1490   1.084       .  S
O1487      H1492   0.992   1_565  S
O1489      H1493   0.991       .  S
C1495      C1496   1.406       .  A
C1495      C1500   1.407       .  A
C1495      H1505   1.083       .  S
C1496      C1501   1.489       .  S
C1496      C1497   1.407       .  A
C1497      C1498   1.401       .  A
C1497      O1502   1.373       .  S
C1498      C1499   1.407       .  A
C1498      H1503   1.084       .  S
C1499      C1500   1.411       .  A
C1500      O1504   1.371       .  S
C1501      C1506   1.413       .  A
C1501      C1510   1.400       .  A
O1502      H1518   0.989       .  S
O1504      H1515   0.992       .  S
C1506      C1507   1.407       .  A
C1506      O1511   1.371       .  S
C1507      C1508   1.403       .  A
C1507      H1512   1.083       .  S
C1508      C1509   1.416       .  A
C1509      C1510   1.401       .  A
C1509      O1513   1.372       .  S
C1510      H1514   1.084       .  S
O1511      H1516   0.991       .  S
O1513      H1517   0.991       .  S
C1519      C1520   1.407       .  A
C1519      C1524   1.405       .  A
C1519      H1529   1.083       .  S
C1520      C1525   1.489       .  S
C1520      C1521   1.406       .  A
C1521      C1522   1.398       .  A
C1521      O1526   1.372       .  S
C1522      C1523   1.411       .  A
C1522      H1527   1.083       .  S
C1523      C1524   1.413       .  A
C1524      O1528   1.371       .  S
C1525      C1530   1.410       .  A
C1525      C1534   1.406       .  A
O1526      H1542   0.991       .  S
O1528      H1539   0.992       .  S
C1530      C1531   1.405       .  A
C1530      O1535   1.372       .  S
C1531      C1532   1.404       .  A
C1531      H1536   1.084       .  S
C1532      C1533   1.403       .  A
C1533      C1534   1.398       .  A
C1533      O1537   1.368       .  S
C1534      H1538   1.083       .  S
O1535      H1540   0.996       .  S
O1537      H1541   0.992       .  S
C1543      C1544   1.405       .  A
C1543      C1548   1.404       .  A
C1543      H1553   1.081       .  S
C1544      C1549   1.486       .  S
C1544      C1545   1.406       .  A
C1545      C1546   1.401       .  A
C1545      O1550   1.373       .  S
C1546      C1547   1.409       .  A
C1546      H1551   1.084       .  S
C1547      C1548   1.409       .  A
C1548      O1552   1.371       .  S
C1549      C1554   1.409       .  A
C1549      C1558   1.403       .  A
O1550      H1566   0.992       .  S
O1552      H1563   0.992       .  S
C1554      C1555   1.400       .  A
C1554      O1559   1.372       .  S
C1555      C1556   1.406       .  A
C1555      H1560   1.084       .  S
C1556      C1557   1.414       .  A
C1557      C1558   1.402       .  A
C1557      O1561   1.371       .  S
C1558      H1562   1.084       .  S
O1559      H1564   0.992       .  S
O1561      H1565   0.992       .  S
C1567      C1568   1.402       .  A
C1567      C1572   1.396       .  A
C1567      H1577   1.084       .  S
C1568      C1573   1.482       .  S
C1568      C1569   1.407       .  A
C1569      C1570   1.405       .  A
C1569      O1574   1.372       .  S
C1570      C1571   1.406       .  A
C1570      H1575   1.083       .  S
C1571      C1572   1.413       .  A
C1572      O1576   1.372       .  S
C1573      C1578   1.410       .  A
C1573      C1582   1.399       .  A
O1574      H1590   0.991       .  S
O1576      H1587   0.992       .  S
C1578      C1579   1.407       .  A
C1578      O1583   1.372       .  S
C1579      C1580   1.405       .  A
C1579      H1584   1.083       .  S
C1580      C1581   1.414       .  A
C1581      C1582   1.395       .  A
C1581      O1585   1.372       .  S
C1582      H1586   1.084       .  S
O1583      H1588   0.991       .  S
O1585      H1589   0.992       .  S
C1591      C1592   1.403       .  A
C1591      C1596   1.401       .  A
C1591      H1601   1.084       .  S
C1592      C1597   1.490       .  S
C1592      C1593   1.412       .  A
C1593      C1594   1.405       .  A
C1593      O1598   1.372       .  S
C1594      C1595   1.402       .  A
C1594      H1599   1.083       .  S
C1595      C1596   1.408       .  A
C1596      O1600   1.371       .  S
C1597      C1602   1.412       .  A
C1597      C1606   1.402       .  A
O1598      H1614   0.992       .  S
O1600      H1611   0.991       .  S
C1602      C1603   1.405       .  A
C1602      O1607   1.372       .  S
C1603      C1604   1.404       .  A
C1603      H1608   1.083       .  S
C1604      C1605   1.414       .  A
C1605      C1606   1.404       .  A
C1605      O1609   1.372       .  S
C1606      H1610   1.084       .  S
O1607      H1612   0.992       .  S
O1609      H1613   0.992       .  S
C1615      C1616   1.408       .  A
C1615      C1620   1.408       .  A
C1615      H1625   1.084       .  S
C1616      C1621   1.486       .  S
C1616      C1617   1.403       .  A
C1617      C1618   1.399       .  A
C1617      O1622   1.372       .  S
C1618      C1619   1.410       .  A
C1618      H1623   1.084       .  S
C1619      C1620   1.410       .  A
C1620      O1624   1.371       .  S
C1621      C1626   1.409       .  A
C1621      C1630   1.400       .  A
O1622      H1638   0.992       .  S
O1624      H1635   0.992       .  S
C1626      C1627   1.409       .  A
C1626      O1631   1.372       .  S
C1627      C1628   1.407       .  A
C1627      H1632   1.083       .  S
C1628      C1629   1.414       .  A
C1629      C1630   1.401       .  A
C1629      O1633   1.374       .  S
C1630      H1634   1.084       .  S
O1631      H1636   0.992       .  S
O1633      H1637   0.992       .  S
C1639      C1640   1.406       .  A
C1639      C1644   1.410       .  A
C1639      H1649   1.083       .  S
C1640      C1645   1.479       .  S
C1640      C1641   1.402       .  A
C1641      C1642   1.389       .  A
C1641      O1646   1.372       .  S
C1642      C1643   1.408       .  A
C1642      H1647   1.084       .  S
C1643      C1644   1.412       .  A
C1644      O1648   1.371       .  S
C1645      C1650   1.404       .  A
C1645      C1654   1.403       .  A
O1646      H1662   0.991       .  S
O1648      H1659   0.992       .  S
C1650      C1651   1.401       .  A
C1650      O1655   1.371       .  S
C1651      C1652   1.409       .  A
C1651      H1656   1.083       .  S
C1652      C1653   1.413       .  A
C1653      C1654   1.399       .  A
C1653      O1657   1.372       .  S
C1654      H1658   1.084       .  S
O1655      H1660   0.992       .  S
O1657      H1661   0.992       .  S
C1663      C1664   1.399       .  A
C1663      C1668   1.395       .  A
C1663      H1673   1.084       .  S
C1664      C1669   1.482       .  S
C1664      C1665   1.409       .  A
C1665      C1666   1.408       .  A
C1665      O1670   1.371       .  S
C1666      C1667   1.408       .  A
C1666      H1671   1.083       .  S
C1667      C1668   1.412       .  A
C1668      O1672   1.373       .  S
C1669      C1674   1.409       .  A
C1669      C1678   1.401       .  A
O1670      H1686   0.992       .  S
O1672      H1683   0.992       .  S
C1674      C1675   1.400       .  A
C1674      O1679   1.372       .  S
C1675      C1676   1.403       .  A
C1675      H1680   1.084       .  S
C1676      C1677   1.413       .  A
C1677      C1678   1.404       .  A
C1677      O1681   1.372       .  S
C1678      H1682   1.083       .  S
O1679      H1684   0.992       .  S
O1681      H1685   0.992       .  S
C1687      C1688   1.409       .  A
C1687      C1692   1.405       .  A
C1687      H1697   1.082       .  S
C1688      C1693   1.493       .  S
C1688      C1689   1.409       .  A
C1689      C1690   1.398       .  A
C1689      O1694   1.372       .  S
C1690      C1691   1.406       .  A
C1690      H1695   1.084       .  S
C1691      C1692   1.409       .  A
C1692      O1696   1.371       .  S
C1693      C1698   1.409       .  A
C1693      C1702   1.406       .  A
O1694      H1710   0.991       .  S
O1696      H1707   0.992       .  S
C1698      C1699   1.404       .  A
C1698      O1703   1.372       .  S
C1699      C1700   1.408       .  A
C1699      H1704   1.084       .  S
C1700      C1701   1.413       .  A
C1701      C1702   1.400       .  A
C1701      O1705   1.372       .  S
C1702      H1706   1.083       .  S
O1703      H1708   0.992       .  S
O1705      H1709   0.992       .  S
C1711      C1712   1.407       .  A
C1711      C1716   1.402       .  A
C1711      H1721   1.082       .  S
C1712      C1717   1.500       .  S
C1712      C1713   1.412       .  A
C1713      C1714   1.404       .  A
C1713      O1718   1.371       .  S
C1714      C1715   1.409       .  A
C1714      H1719   1.083       .  S
C1715      C1716   1.414       .  A
C1716      O1720   1.371       .  S
C1717      C1722   1.411       .  A
C1717      C1726   1.410       .  A
O1718      H1734   0.992       .  S
O1720      H1731   0.992       .  S
C1722      C1723   1.404       .  A
C1722      O1727   1.373       .  S
C1723      C1724   1.407       .  A
C1723      H1728   1.084       .  S
C1724      C1725   1.410       .  A
C1725      C1726   1.407       .  A
C1725      O1729   1.371       .  S
C1726      H1730   1.082       .  S
O1727      H1732   0.992       .  S
O1729      H1733   0.992       .  S
C1735      C1736   1.406       .  A
C1735      C1740   1.404       .  A
C1735      H1745   1.084       .  S
C1736      C1741   1.491       .  S
C1736      C1737   1.410       .  A
C1737      C1738   1.399       .  A
C1737      O1742   1.373       .  S
C1738      C1739   1.406       .  A
C1738      H1743   1.083       .  S
C1739      C1740   1.413       .  A
C1740      O1744   1.372       .  S
C1741      C1746   1.409       .  A
C1741      C1750   1.406       .  A
O1742      H1758   0.992       .  S
O1744      H1755   0.992       .  S
C1746      C1747   1.400       .  A
C1746      O1751   1.372       .  S
C1747      C1748   1.408       .  A
C1747      H1752   1.084       .  S
C1748      C1749   1.408       .  A
C1749      C1750   1.402       .  A
C1749      O1753   1.371       .  S
C1750      H1754   1.078       .  S
O1751      H1756   0.991       .  S
O1753      H1757   0.992       .  S
C1759      C1760   1.407       .  A
C1759      C1764   1.402       .  A
C1759      H1769   1.083       .  S
C1760      C1765   1.489       .  S
C1760      C1761   1.409       .  A
C1761      C1762   1.398       .  A
C1761      O1766   1.372       .  S
C1762      C1763   1.407       .  A
C1762      H1767   1.084       .  S
C1763      C1764   1.410       .  A
C1764      O1768   1.371       .  S
C1765      C1770   1.407       .  A
C1765      C1774   1.406       .  A
O1766      H1782   0.992       .  S
O1768      H1779   0.992       .  S
C1770      C1771   1.396       .  A
C1770      O1775   1.370       .  S
C1771      C1772   1.407       .  A
C1771      H1776   1.084       .  S
C1772      C1773   1.412       .  A
C1773      C1774   1.404       .  A
C1773      O1777   1.371       .  S
C1774      H1778   1.083       .  S
O1775      H1780   0.992       .  S
O1777      H1781   0.991       .  S
C1783      C1784   1.409       .  A
C1783      C1788   1.406       .  A
C1783      H1793   1.082       .  S
C1784      C1789   1.499       .  S
C1784      C1785   1.411       .  A
C1785      C1786   1.401       .  A
C1785      O1790   1.372       .  S
C1786      C1787   1.408       .  A
C1786      H1791   1.084       .  S
C1787      C1788   1.410       .  A
C1788      O1792   1.371       .  S
C1789      C1794   1.411       .  A
C1789      C1798   1.407       .  A
O1790      H1806   0.992       .  S
O1792      H1803   0.992       .  S
C1794      C1795   1.403       .  A
C1794      O1799   1.371       .  S
C1795      C1796   1.408       .  A
C1795      H1800   1.084       .  S
C1796      C1797   1.413       .  A
C1797      C1798   1.403       .  A
C1797      O1801   1.372       .  S
C1798      H1802   1.083       .  S
O1799      H1804   0.991       .  S
O1801      H1805   0.992       .  S
C1807      C1808   1.401       .  A
C1807      C1812   1.400       .  A
C1807      H1817   1.084       .  S
C1808      C1813   1.493       .  S
C1808      C1809   1.412       .  A
C1809      C1810   1.407       .  A
C1809      O1814   1.370       .  S
C1810      C1811   1.407       .  A
C1810      H1815   1.083       .  S
C1811      C1812   1.416       .  A
C1812      O1816   1.371       .  S
C1813      C1818   1.411       .  A
C1813      C1822   1.404       .  A
O1814      H1830   0.991       .  S
O1816      H1827   0.992       .  S
C1818      C1819   1.402       .  A
C1818      O1823   1.372       .  S
C1819      C1820   1.406       .  A
C1819      H1824   1.083       .  S
C1820      C1821   1.416       .  A
C1821      C1822   1.405       .  A
C1821      O1825   1.372       .  S
C1822      H1826   1.083       .  S
O1823      H1828   0.992       .  S
O1825      H1829   0.992       .  S
C1831      C1832   1.404       .  A
C1831      C1836   1.406       .  A
C1831      H1841   1.083       .  S
C1832      C1837   1.480       .  S
C1832      C1833   1.407       .  A
C1833      C1834   1.395       .  A
C1833      O1838   1.372       .  S
C1834      C1835   1.402       .  A
C1834      H1839   1.084       .  S
C1835      C1836   1.411       .  A
C1836      O1840   1.372       .  S
C1837      C1842   1.405       .  A
C1837      C1846   1.404       .  A
O1838      H1854   0.992       .  S
O1840      H1851   0.992       .  S
C1842      C1843   1.397       .  A
C1842      O1847   1.372       .  S
C1843      C1844   1.408       .  A
C1843      H1848   1.084       .  S
C1844      C1845   1.411       .  A
C1845      C1846   1.404       .  A
C1845      O1849   1.371       .  S
C1846      H1850   1.084       .  S
O1847      H1852   0.992       .  S
O1849      H1853   0.991       .  S
C1855      C1856   1.405       .  A
C1855      C1860   1.405       .  A
C1855      H1865   1.084       .  S
C1856      C1861   1.480       .  S
C1856      C1857   1.403       .  A
C1857      C1858   1.398       .  A
C1857      O1862   1.373       .  S
C1858      C1859   1.406       .  A
C1858      H1863   1.084       .  S
C1859      C1860   1.412       .  A
C1860      O1864   1.371       .  S
C1861      C1866   1.406       .  A
C1861      C1870   1.404       .  A
O1862      H1878   0.992       .  S
O1864      H1875   0.991       .  S
C1866      C1867   1.396       .  A
C1866      O1871   1.373       .  S
C1867      C1868   1.404       .  A
C1867      H1872   1.084       .  S
C1868      C1869   1.410       .  A
C1869      C1870   1.407       .  A
C1869      O1873   1.372       .  S
C1870      H1874   1.083       .  S
O1871      H1876   0.992       .  S
O1873      H1877   0.992       .  S
C1879      C1880   1.403       .  A
C1879      C1884   1.400       .  A
C1879      H1889   1.083       .  S
C1880      C1885   1.487       .  S
C1880      C1881   1.413       .  A
C1881      C1882   1.402       .  A
C1881      O1886   1.372       .  S
C1882      C1883   1.400       .  A
C1882      H1887   1.082       .  S
C1883      C1884   1.408       .  A
C1884      O1888   1.372       .  S
C1885      C1890   1.412       .  A
C1885      C1894   1.399       .  A
O1886      H1902   0.992       .  S
O1888      H1899   0.991       .  S
C1890      C1891   1.406       .  A
C1890      O1895   1.372       .  S
C1891      C1892   1.405       .  A
C1891      H1896   1.083       .  S
C1892      C1893   1.417       .  A
C1893      C1894   1.398       .  A
C1893      O1897   1.371       .  S
C1894      H1898   1.084       .  S
O1895      H1900   0.991       .  S
O1897      H1901   0.991       .  S
C1903      C1904   1.410       .  A
C1903      C1908   1.414       .  A
C1903      H1913   1.083       .  S
C1904      C1909   1.495       .  S
C1904      C1905   1.405       .  A
C1905      C1906   1.398       .  A
C1905      O1910   1.373       .  S
C1906      C1907   1.409       .  A
C1906      H1911   1.081       .  S
C1907      C1908   1.412       .  A
C1908      O1912   1.370       .  S
C1909      C1914   1.414       .  A
C1909      C1918   1.400       .  A
O1910      H1926   0.992       .  S
O1912      H1923   0.991       .  S
C1914      C1915   1.407       .  A
C1914      O1919   1.371       .  S
C1915      C1916   1.403       .  A
C1915      H1920   1.083       .  S
C1916      C1917   1.418       .  A
C1917      C1918   1.404       .  A
C1917      O1921   1.372       .  S
C1918      H1922   1.084       .  S
O1919      H1924   0.991       .  S
O1921      H1925   0.992       .  S
C1927      C1928   1.407       .  A
C1927      C1932   1.400       .  A
C1927      H1937   1.083       .  S
C1928      C1933   1.496       .  S
C1928      C1929   1.411       .  A
C1929      C1930   1.404       .  A
C1929      O1934   1.370       .  S
C1930      C1931   1.403       .  A
C1930      H1935   1.081       .  S
C1931      C1932   1.409       .  A
C1932      O1936   1.372       .  S
C1933      C1938   1.413       .  A
C1933      C1942   1.408       .  A
O1934      H1950   0.992       .  S
O1936      H1947   0.992       .  S
C1938      C1939   1.401       .  A
C1938      O1943   1.373       .  S
C1939      C1940   1.401       .  A
C1939      H1944   1.084       .  S
C1940      C1941   1.408       .  A
C1941      C1942   1.406       .  A
C1941      O1945   1.372       .  S
C1942      H1946   1.083       .  S
O1943      H1948   0.992       .  S
O1945      H1949   0.992       .  S
C1951      C1952   1.399       .  A
C1951      C1956   1.399       .  A
C1951      H1961   1.084       .  S
C1952      C1957   1.488       .  S
C1952      C1953   1.408       .  A
C1953      C1954   1.410       .  A
C1953      O1958   1.371       .  S
C1954      C1955   1.408       .  A
C1954      H1959   1.083       .  S
C1955      C1956   1.418       .  A
C1956      O1960   1.373       .  S
C1957      C1962   1.408       .  A
C1957      C1966   1.400       .  A
O1958      H1974   0.991       .  S
O1960      H1971   0.991       .  S
C1962      C1963   1.407       .  A
C1962      O1967   1.370       .  S
C1963      C1964   1.408       .  A
C1963      H1968   1.083       .  S
C1964      C1965   1.420       .  A
C1965      C1966   1.400       .  A
C1965      O1969   1.371       .  S
C1966      H1970   1.084       .  S
O1967      H1972   0.991       .  S
O1969      H1973   0.992       .  S
C1975      C1976   1.400       .  A
C1975      C1980   1.401       .  A
C1975      H1985   1.084       .  S
C1976      C1981   1.493       .  S
C1976      C1977   1.413       .  A
C1977      C1978   1.410       .  A
C1977      O1982   1.372       .  S
C1978      C1979   1.406       .  A
C1978      H1983   1.083       .  S
C1979      C1980   1.414       .  A
C1980      O1984   1.371       .  S
C1981      C1986   1.412       .  A
C1981      C1990   1.403       .  A
O1982      H1998   0.992       .  S
O1984      H1995   0.992       .  S
C1986      C1987   1.405       .  A
C1986      O1991   1.372       .  S
C1987      C1988   1.402       .  A
C1987      H1992   1.083       .  S
C1988      C1989   1.411       .  A
C1989      C1990   1.407       .  A
C1989      O1993   1.372       .  S
C1990      H1994   1.084       .  S
O1991      H1996   0.992       .  S
O1993      H1997   0.991       .  S
C1999      C2000   1.405       .  A
C1999      C2004   1.409       .  A
C1999      H2009   1.083       .  S
C2000      C2005   1.487       .  S
C2000      C2001   1.406       .  A
C2001      C2002   1.400       .  A
C2001      O2006   1.372       .  S
C2002      C2003   1.406       .  A
C2002      H2007   1.084       .  S
C2003      C2004   1.412       .  A
C2004      O2008   1.372       .  S
C2005      C2010   1.410       .  A
C2005      C2014   1.400       .  A
O2006      H2022   0.992       .  S
O2008      H2019   0.992       .  S
C2010      C2011   1.407       .  A
C2010      O2015   1.371       .  S
C2011      C2012   1.405       .  A
C2011      H2016   1.083       .  S
C2012      C2013   1.413       .  A
C2013      C2014   1.404       .  A
C2013      O2017   1.372       .  S
C2014      H2018   1.084       .  S
O2015      H2020   0.991       .  S
O2017      H2021   0.992       .  S
C2023      C2024   1.399       .  A
C2023      C2028   1.395       .  A
C2023      H2033   1.084       .  S
C2024      C2029   1.477       .  S
C2024      C2025   1.408       .  A
C2025      C2026   1.404       .  A
C2025      O2030   1.372       .  S
C2026      C2027   1.406       .  A
C2026      H2031   1.084       .  S
C2027      C2028   1.410       .  A
C2028      O2032   1.373       .  S
C2029      C2034   1.410       .  A
C2029      C2038   1.399       .  A
O2030      H2046   0.992       .  S
O2032      H2043   0.991       .  S
C2034      C2035   1.400       .  A
C2034      O2039   1.373       .  S
C2035      C2036   1.402       .  A
C2035      H2040   1.084       .  S
C2036      C2037   1.411       .  A
C2037      C2038   1.399       .  A
C2037      O2041   1.372       .  S
C2038      H2042   1.084       .  S
O2039      H2044   0.992       .  S
O2041      H2045   0.992       .  S
C2047      C2048   1.403       .  A
C2047      C2052   1.406       .  A
C2047      H2057   1.083       .  S
C2048      C2053   1.474       .  S
C2048      C2049   1.402       .  A
C2049      C2050   1.394       .  A
C2049      O2054   1.372       .  S
C2050      C2051   1.407       .  A
C2050      H2055   1.081       .  S
C2051      C2052   1.411       .  A
C2052      O2056   1.371       .  S
C2053      C2058   1.399       .  A
C2053      C2062   1.404       .  A
O2054      H2070   0.988       .  S
O2056      H2067   0.992       .  S
C2058      C2059   1.395       .  A
C2058      O2063   1.372       .  S
C2059      C2060   1.413       .  A
C2059      H2064   1.083       .  S
C2060      C2061   1.413       .  A
C2061      C2062   1.405       .  A
C2061      O2065   1.371       .  S
C2062      H2066   1.084       .  S
O2063      H2068   0.992       .  S
O2065      H2069   0.992       .  S
