geometry optimzed in LAMMPS
_audit_creation_date              2020-11-30 
_audit_creation_method            'lammps2cif' 
_symmetry_space_group_name_H-M    'P1' 
_symmetry_Int_Tables_number       1 
_symmetry_cell_setting            triclinic 
loop_ 
_symmetry_equiv_pos_as_xyz 
  x,y,z 
_cell_length_a                    40.229609390695586 
_cell_length_b                    40.371093712945665 
_cell_length_c                    72.99387908966804 
_cell_angle_alpha                 90.05919263298891 
_cell_angle_beta                  90.14863220333923 
_cell_angle_gamma                 90.83807453634655 
loop_ 
_atom_site_label 
_atom_site_type_symbol 
_atom_site_fract_x 
_atom_site_fract_y 
_atom_site_fract_z 
_atom_site_charge 
O1          O  0.62439064  0.09762003  0.57701560    -0.57150
C2          C  0.56311184  0.11224234  0.54009979     0.75480
O3          O  0.66917757  0.16760641  0.53749627    -0.58310
C4          C  0.65268758  0.10496911  0.58352848     0.75450
C5          C  0.65351465  0.06555044  0.52108563     0.77840
Cd6        Cd  0.63395036  0.11759833  0.54589260     1.37460
O7          O  0.57691036  0.10847136  0.55548618    -0.57150
O8          O  0.64793367  0.05974893  0.53779888    -0.55960
C9          C  0.64703433  0.18821194  0.54182404     0.77800
O10         O  0.65433086  0.09568163  0.51636670    -0.58330
O11         O  0.58226083  0.11992119  0.52699865    -0.56780
O12         O  0.67373455  0.11655074  0.57223103    -0.56770
O13         O  0.62021055  0.17569057  0.54778054    -0.55950
O14         O  0.62304694  0.91919764  0.41877058    -0.57150
C15         C  0.56189154  0.89103469  0.45636092     0.75480
O16         O  0.66348470  0.84812559  0.46439237    -0.58310
C17         C  0.65140483  0.91282446  0.41237380     0.75450
C18         C  0.65293769  0.95289291  0.47182389     0.77840
Cd19       Cd  0.63321563  0.89658450  0.44938705     1.37460
O20         O  0.57401806  0.88910860  0.44048568    -0.57150
O21         O  0.63788456  0.95531699  0.45667002    -0.55960
C22         C  0.65307019  0.82778420  0.45235459     0.77800
O23         O  0.66205102  0.92399744  0.47612537    -0.58330
O24         O  0.58255148  0.89436036  0.46933444    -0.56780
O25         O  0.67301875  0.90249021  0.42359234    -0.56770
O26         O  0.63696904  0.84005373  0.43927615    -0.55950
O27         O  0.40647920  0.10982585  0.55279327    -0.57150
C28         C  0.33059823  0.10580936  0.58214421     0.75480
O29         O  0.32107684  0.17033487  0.53233420    -0.58310
C30         C  0.41967795  0.11402204  0.53728010     0.75450
C31         C  0.32111702  0.06697987  0.52276743     0.77840
Cd32       Cd  0.34881342  0.11947633  0.54485888     1.37470
O33         O  0.35729031  0.09561148  0.57523081    -0.57150
O34         O  0.33473677  0.06248759  0.53812559    -0.55960
C35         C  0.33941001  0.19008421  0.54151079     0.77800
O36         O  0.31633779  0.09670883  0.51805802    -0.58330
O37         O  0.31070402  0.12030823  0.57141881    -0.56780
O38         O  0.39987475  0.12146233  0.52448204    -0.56770
O39         O  0.35960024  0.17709540  0.55252823    -0.55950
O40         O  0.36603314  0.92603433  0.41986156    -0.57150
C41         C  0.41996088  0.90840456  0.45909320     0.75480
O42         O  0.32843319  0.92639709  0.47968439    -0.58310
C43         C  0.33878347  0.92123091  0.41159594     0.75450
C44         C  0.33624145  0.83504772  0.45110938     0.77840
Cd45       Cd  0.34917609  0.90591886  0.44986772     1.37460
O46         O  0.40733644  0.92937632  0.44838318    -0.57150
O47         O  0.35981444  0.84904597  0.44258657    -0.55960
C48         C  0.32093573  0.95491751  0.47400913     0.77800
O49         O  0.31547048  0.85420903  0.45853826    -0.58330
O50         O  0.39981802  0.88833308  0.46658894    -0.56780
O51         O  0.31523832  0.90936103  0.42122943    -0.56770
O52         O  0.32167002  0.95925383  0.45689669    -0.55950
O53         O  0.37590775  0.60318730  0.41669597    -0.57150
C54         C  0.43663972  0.62196880  0.45578427     0.75480
O55         O  0.33127072  0.67059152  0.45939679    -0.58310
C56         C  0.34624735  0.60477666  0.41109016     0.75450
C57         C  0.34605967  0.56766672  0.47110782     0.77840
Cd58       Cd  0.36556024  0.62221896  0.44789051     1.37470
O59         O  0.42390356  0.60821457  0.44184519    -0.57150
O60         O  0.35398383  0.56412366  0.45454969    -0.55960
C61         C  0.34729441  0.69182659  0.44997264     0.77800
O62         O  0.34295140  0.59711104  0.47678184    -0.58330
O63         O  0.41677129  0.63697933  0.46618226    -0.56780
O64         O  0.32477339  0.61396663  0.42266231    -0.56770
O65         O  0.36887333  0.68035811  0.43923812    -0.55950
O66         O  0.37515996  0.41617562  0.57516645    -0.57150
C67         C  0.43101803  0.40358807  0.53775669     0.75480
O68         O  0.32153101  0.35423841  0.53830793    -0.58310
C69         C  0.34667088  0.41430380  0.58230597     0.75450
C70         C  0.34116407  0.45639332  0.52018496     0.77840
Cd71       Cd  0.36012619  0.40317729  0.54401117     1.37470
O72         O  0.41736656  0.41326797  0.55236101    -0.57150
O73         O  0.35297692  0.46125133  0.53599155    -0.55960
C74         C  0.34440299  0.33323667  0.54026927     0.77800
O75         O  0.33464875  0.42669104  0.51574688    -0.58330
O76         O  0.41140677  0.39452670  0.52504702    -0.56780
O77         O  0.32256023  0.40915583  0.57139435    -0.56770
O78         O  0.37297112  0.34508995  0.54364161    -0.55950
O79         O  0.59124303  0.59094618  0.44728202    -0.57150
C80         C  0.65358322  0.59980835  0.41110291     0.75480
O81         O  0.68096839  0.66502263  0.46074307    -0.58310
C82         C  0.57855855  0.60832653  0.45973138     0.75450
C83         C  0.67724474  0.56180198  0.47136245     0.77840
Cd84       Cd  0.64855223  0.61380825  0.44982200     1.37470
O85         O  0.62727211  0.59725453  0.42036092    -0.57150
O86         O  0.67728754  0.56102523  0.45407576    -0.55960
C87         C  0.66237085  0.68441515  0.45187037     0.77800
O88         O  0.66894127  0.58875913  0.47876760    -0.58330
O89         O  0.67945038  0.60841243  0.42007798    -0.56780
O90         O  0.59852472  0.62706767  0.46844321    -0.56770
O91         O  0.64096970  0.67059891  0.44164140    -0.55950
O92         O  0.63195777  0.42588194  0.57423251    -0.57150
C93         C  0.57528448  0.40433415  0.53891275     0.75480
O94         O  0.68780678  0.42527061  0.52227272    -0.58310
C95         C  0.65859588  0.42116510  0.58287129     0.75450
C96         C  0.65345778  0.33195077  0.54273264     0.77840
Cd97       Cd  0.64615816  0.40308449  0.54520010     1.37470
O98         O  0.59023801  0.41954455  0.55160246    -0.57150
O99         O  0.63894575  0.34629087  0.55575538    -0.55960
C100        C  0.67306207  0.45265452  0.52090023     0.77800
O101        O  0.66772534  0.35057727  0.53110389    -0.58330
O102        O  0.59357759  0.38998930  0.52733353    -0.56780
O103        O  0.68213452  0.40918721  0.57353088    -0.56770
O104        O  0.64869428  0.45706596  0.53135718    -0.55950
O105        O  0.84909019  0.87989083  0.16865804    -0.57150
C106        C  0.85865641  0.82447138  0.20915585     0.75480
O107        O  0.90914418  0.91783457  0.21656624    -0.58310
C108        C  0.84415754  0.90864962  0.16257310     0.75450
C109        C  0.80615972  0.91724890  0.22314288     0.77840
Cd110      Cd  0.85963259  0.89399399  0.20031891     1.37460
O111        O  0.84279593  0.83667755  0.19591270    -0.57150
O112        O  0.80175583  0.89746323  0.20994229    -0.55960
C113        C  0.92919676  0.91231370  0.20361424     0.77800
O114        O  0.83536085  0.92886946  0.22508797    -0.58330
O115        O  0.87557480  0.84464782  0.21873105    -0.56780
O116        O  0.84680525  0.93211127  0.17412655    -0.56770
O117        O  0.91671336  0.90002734  0.18918356    -0.55950
O118        O  0.66235701  0.88474897  0.32548917    -0.57150
C119        C  0.64240287  0.82659935  0.28790846     0.75480
O120        O  0.59070280  0.92876513  0.28509423    -0.58310
C121        C  0.65528860  0.91154725  0.33337809     0.75450
C122        C  0.69361810  0.91890213  0.27157622     0.77840
Cd123      Cd  0.64068263  0.89654830  0.29547141     1.37460
O124        O  0.64752018  0.83917881  0.30348766    -0.57150
O125        O  0.69863279  0.90372480  0.28641569    -0.55960
C126        C  0.57032999  0.90771980  0.29172658     0.77800
O127        O  0.66379298  0.92668937  0.26840224    -0.58330
O128        O  0.63481666  0.84646824  0.27520687    -0.56780
O129        O  0.64349165  0.93397151  0.32319607    -0.56770
O130        O  0.58292304  0.88401235  0.30039234    -0.55950
O131        O  0.34490408  0.84945725  0.30149489    -0.57150
C132        C  0.34023552  0.92202961  0.33290875     0.75480
O133        O  0.40771547  0.93621184  0.28401824    -0.58310
C134        C  0.35611765  0.83686140  0.28694678     0.75450
C135        C  0.30366055  0.92990421  0.27206885     0.77840
Cd136      Cd  0.35629059  0.90636071  0.29520014     1.37470
O137        O  0.33541582  0.89403799  0.32569031    -0.57150
O138        O  0.30018375  0.90713288  0.28374994    -0.55960
C139        C  0.42706951  0.91583132  0.29162612     0.77800
O140        O  0.33222726  0.94341577  0.27123716    -0.58330
O141        O  0.35235067  0.94423398  0.32249561    -0.56780
O142        O  0.36626816  0.85708164  0.27487069    -0.56770
O143        O  0.41342901  0.89336255  0.30112921    -0.55950
O144        O  0.16955783  0.89485955  0.17118373    -0.57150
C145        C  0.13988460  0.83688359  0.20858105     0.75480
O146        O  0.16227378  0.93898233  0.22605353    -0.58310
C147        C  0.15825963  0.91877190  0.16211757     0.75450
C148        C  0.07178274  0.91980781  0.20155061     0.77840
Cd149      Cd  0.14179729  0.90612911  0.19958634     1.37470
O150        O  0.14794665  0.84751536  0.19297222    -0.57150
O151        O  0.08382546  0.89912347  0.19051757    -0.55960
C152        C  0.19252636  0.93243689  0.22340684     0.77800
O153        O  0.09222422  0.93557313  0.21165736    -0.58330
O154        O  0.13310790  0.85822515  0.22061469    -0.56780
O155        O  0.14233463  0.94044594  0.17096879    -0.56770
O156        O  0.19919628  0.91707243  0.20884603    -0.56410
O157        O  0.33748933  0.67917432  0.29953944    -0.57150
C158        C  0.34360713  0.60896818  0.33309051     0.75480
O159        O  0.33419939  0.59740282  0.26673078    -0.58310
C160        C  0.35505442  0.69373164  0.28765878     0.75450
C161        C  0.42768047  0.61131033  0.29179446     0.77840
Cd162      Cd  0.35742909  0.62368088  0.29499009     1.37470
O163        O  0.34784692  0.63771483  0.32669976    -0.57150
O164        O  0.41510354  0.63341121  0.30167698    -0.55960
C165        C  0.30411454  0.60073508  0.27143756     0.77800
O166        O  0.40727355  0.59181160  0.28378871    -0.58330
O167        O  0.34668376  0.58532958  0.32174441    -0.56780
O168        O  0.37203797  0.67536323  0.27735260    -0.56770
O169        O  0.29959604  0.61184741  0.28735251    -0.55950
O170        O  0.16203779  0.63544311  0.16646918    -0.57150
C171        C  0.14037280  0.69632832  0.20696042     0.75480
O172        O  0.09022559  0.59684345  0.20951058    -0.58310
C173        C  0.15148506  0.60796345  0.16033016     0.75450
C174        C  0.19564733  0.60494405  0.21988282     0.77840
Cd175      Cd  0.14103901  0.62743109  0.19772061     1.37460
O176        O  0.14566359  0.68632592  0.19082880    -0.57150
O177        O  0.19919003  0.62360522  0.20616576    -0.55960
C178        C  0.07040800  0.61662544  0.20171665     0.77800
O179        O  0.16622441  0.59479371  0.22305715    -0.58330
O180        O  0.13577233  0.67452675  0.21915445    -0.56780
O181        O  0.13902202  0.58791313  0.17184059    -0.56770
O182        O  0.08368528  0.63904919  0.19210065    -0.55950
O183        O  0.83347698  0.62335460  0.16794299    -0.57150
C184        C  0.85323243  0.68309445  0.20758812     0.75480
O185        O  0.83471677  0.58175187  0.22502986    -0.58310
C186        C  0.84036139  0.59536940  0.16135335     0.75450
C187        C  0.92662410  0.60627499  0.20121352     0.77840
Cd188      Cd  0.85573754  0.61411420  0.19844987     1.37460
O189        O  0.84278915  0.67155746  0.19252185    -0.57150
O190        O  0.91266751  0.62843655  0.19183501    -0.55960
C191        C  0.80469448  0.58956953  0.22249122     0.77800
O192        O  0.90742449  0.58541851  0.20895718    -0.58330
O193        O  0.86531979  0.66260850  0.21878728    -0.56780
O194        O  0.85314012  0.57472079  0.17227620    -0.56770
O195        O  0.79862764  0.60598093  0.20820296    -0.55950
O196        O  0.65185146  0.67251681  0.30204134    -0.57150
C197        C  0.65583296  0.59513583  0.33220468     0.75480
O198        O  0.59061180  0.58469740  0.28369490    -0.58310
C199        C  0.64292005  0.68439247  0.28680512     0.75450
C200        C  0.69379957  0.59076903  0.27134102     0.77840
Cd201      Cd  0.64205471  0.61456114  0.29494350     1.37460
O202        O  0.66760183  0.62139450  0.32527944    -0.57150
O203        O  0.69889030  0.61028316  0.28459647    -0.55960
C204        C  0.57127590  0.60488031  0.29146885     0.77800
O205        O  0.66422355  0.58014308  0.26939445    -0.58330
O206        O  0.63935541  0.57625323  0.32156704    -0.56780
O207        O  0.63349329  0.66368635  0.27478080    -0.56770
O208        O  0.58502436  0.62748890  0.30093261    -0.55950
O209        O  0.32966758  0.38284165  0.66832519    -0.57150
C210        C  0.35326691  0.32345237  0.70730517     0.75480
O211        O  0.40132743  0.42953085  0.70809690    -0.58310
C212        C  0.34087942  0.40920790  0.66119122     0.75450
C213        C  0.29877735  0.41580340  0.72184180     0.77840
Cd214      Cd  0.35221431  0.39315522  0.69898384     1.37470
O215        O  0.35713324  0.33450848  0.69124684    -0.57150
O216        O  0.29389383  0.40270620  0.70633371    -0.55960
C217        C  0.42236850  0.40762286  0.70402722     0.77800
O218        O  0.32891908  0.42082353  0.72631251    -0.58330
O219        O  0.34812785  0.34455919  0.71975352    -0.56780
O220        O  0.35426197  0.43025358  0.67187902    -0.56770
O221        O  0.41032506  0.38057683  0.69816514    -0.55950
O222        O  0.14605379  0.38082325  0.82754451    -0.57150
C223        C  0.13805078  0.32298697  0.78724812     0.75480
O224        O  0.08617442  0.42705814  0.78386121    -0.58310
C225        C  0.14947903  0.41022802  0.83329801     0.75450
C226        C  0.18955078  0.41551704  0.77309581     0.77840
Cd227      Cd  0.13466203  0.39326577  0.79575886     1.37460
O228        O  0.15344158  0.33620060  0.80052305    -0.57150
O229        O  0.19273059  0.40582610  0.78937941    -0.55960
C230        C  0.06484472  0.41042167  0.79290304     0.77800
O231        O  0.15980808  0.41790528  0.76749836    -0.58330
O232        O  0.12069233  0.34222706  0.77762313    -0.56780
O233        O  0.14604675  0.43287900  0.82144645    -0.56770
O234        O  0.07634773  0.38871578  0.80350335    -0.55950
O235        O  0.82827962  0.39433209  0.82547478    -0.57150
C236        C  0.85513228  0.33850838  0.78779050     0.75480
O237        O  0.82728511  0.44356030  0.77149365    -0.58310
C238        C  0.83456666  0.42125986  0.83362049     0.75450
C239        C  0.92182452  0.42207429  0.79268577     0.77840
Cd240      Cd  0.85160419  0.40857137  0.79623436     1.37460
O241        O  0.85561073  0.35033770  0.80380130    -0.57150
O242        O  0.90880490  0.40084379  0.80320261    -0.55960
C243        C  0.79908332  0.42936943  0.77281670     0.77800
O244        O  0.90191736  0.44035254  0.78395378    -0.58330
O245        O  0.85246626  0.35925008  0.77488819    -0.56780
O246        O  0.84593634  0.44485648  0.82391864    -0.56770
O247        O  0.79518365  0.40893725  0.78574122    -0.55950
O248        O  0.64325945  0.34999676  0.68892674    -0.57150
C249        C  0.65185964  0.42631817  0.66143118     0.75480
O250        O  0.58548253  0.43413386  0.71058132    -0.58310
C251        C  0.64001424  0.33653035  0.70439042     0.75450
C252        C  0.69128418  0.42725033  0.72116077     0.77840
Cd253      Cd  0.63703361  0.40681550  0.69818148     1.37470
O254        O  0.66118815  0.39915908  0.66809844    -0.57150
O255        O  0.69500126  0.41704585  0.70499421    -0.55960
C256        C  0.56631746  0.41465774  0.70167550     0.77800
O257        O  0.66179484  0.43275657  0.72628508    -0.58330
O258        O  0.63777842  0.44634029  0.67225036    -0.56780
O259        O  0.63375366  0.35581348  0.71757394    -0.56770
O260        O  0.58014888  0.39508510  0.69072824    -0.55950
O261        O  0.35267445  0.17193793  0.69195293    -0.57150
C262        C  0.33581793  0.10097414  0.66083312     0.75480
O263        O  0.40185656  0.08009905  0.70992922    -0.58310
C264        C  0.35649121  0.18237881  0.70812156     0.75450
C265        C  0.29829432  0.08985246  0.72057441     0.77840
Cd266      Cd  0.35356395  0.11327180  0.69863647     1.37460
O267        O  0.33155501  0.12790743  0.66921175    -0.57150
O268        O  0.29613607  0.11023963  0.70754618    -0.55960
C269        C  0.42324176  0.09907053  0.70246986     0.77800
O270        O  0.32689183  0.07795117  0.72311286    -0.58330
O271        O  0.34749610  0.07767313  0.67041688    -0.56780
O272        O  0.35839667  0.16078507  0.72063445    -0.56770
O273        O  0.41231673  0.12266444  0.69300737    -0.55950
O274        O  0.16057058  0.12311524  0.82684167    -0.57150
C275        C  0.14744961  0.18140397  0.78675212     0.75480
O276        O  0.15739624  0.08364479  0.76769283    -0.58310
C277        C  0.15489464  0.09461512  0.83334786     0.75450
C278        C  0.06875852  0.10621710  0.79405448     0.77840
Cd279      Cd  0.14057081  0.11229679  0.79605923     1.37460
O280        O  0.16286443  0.16890471  0.80008836    -0.57150
O281        O  0.08418975  0.12813673  0.80317617    -0.55960
C282        C  0.18827689  0.08669214  0.77069106     0.77800
O283        O  0.08658251  0.08435031  0.78655038    -0.58330
O284        O  0.12966079  0.16171379  0.77732448    -0.56780
O285        O  0.14343333  0.07305109  0.82227590    -0.56770
O286        O  0.19679968  0.09739626  0.78627385    -0.55950
O287        O  0.85624196  0.18343143  0.80538420    -0.57150
C288        C  0.83944228  0.11264154  0.83446598     0.75480
O289        O  0.83283462  0.09827599  0.76795194    -0.58310
C290        C  0.85695407  0.19606162  0.78958233     0.75450
C291        C  0.92432044  0.11099126  0.79253952     0.77840
Cd292      Cd  0.85408506  0.12533609  0.79636567     1.37470
O293        O  0.82721773  0.13616191  0.82543993    -0.57150
O294        O  0.91257009  0.13889223  0.79655191    -0.55960
C295        C  0.80243458  0.10203985  0.77169545     0.77800
O296        O  0.90296638  0.08799907  0.78997449    -0.58330
O297        O  0.85561121  0.09152615  0.82537644    -0.56780
O298        O  0.85485129  0.17595444  0.77629466    -0.56770
O299        O  0.79635632  0.11335263  0.78745840    -0.55950
O300        O  0.64032275  0.18101638  0.69164839    -0.57150
C301        C  0.65056064  0.10643893  0.66222194     0.75480
O302        O  0.65966979  0.09277965  0.72605816    -0.58310
C303        C  0.63735173  0.19388419  0.70733843     0.75450
C304        C  0.56518814  0.10823898  0.70430935     0.77840
Cd305      Cd  0.63506053  0.12383048  0.69986470     1.37460
O306        O  0.65381984  0.13529946  0.66869713    -0.57150
O307        O  0.57585954  0.13400674  0.69637840    -0.55960
C308        C  0.68914643  0.10281002  0.72317464     0.77800
O309        O  0.58685680  0.08831612  0.71009956    -0.58330
O310        O  0.64111649  0.08443087  0.67349917    -0.56780
O311        O  0.63195880  0.17392566  0.72040796    -0.56770
O312        O  0.69319850  0.12051755  0.70908620    -0.55950
O313        O  0.08756013  0.11450433  0.94047659    -0.57150
C314        C  0.16036886  0.10054064  0.91150362     0.75480
O315        O  0.18184236  0.16754325  0.95727611    -0.58310
C316        C  0.07491893  0.11553534  0.95629563     0.75450
C317        C  0.16854031  0.06687227  0.97256899     0.77840
Cd318      Cd  0.14543254  0.11810978  0.94885932     1.37460
O319        O  0.13225052  0.09619838  0.91882938    -0.57150
O320        O  0.15731678  0.06083617  0.95675713    -0.55960
C321        C  0.15918879  0.18786337  0.95336987     0.77800
O322        O  0.17161268  0.09713301  0.97691914    -0.58330
O323        O  0.18288074  0.11250893  0.92185238    -0.56780
O324        O  0.09534887  0.11779725  0.96946444    -0.56770
O325        O  0.13269904  0.17561709  0.94678906    -0.55950
O326        O  0.12894424  0.91800772  0.07696633    -0.57150
C327        C  0.07275644  0.90129888  0.03749612     0.75480
O328        O  0.17449975  0.93106919  0.02078829    -0.58310
C329        C  0.15797758  0.91785295  0.08347925     0.75450
C330        C  0.15625200  0.83413768  0.04184818     0.77840
Cd331      Cd  0.14237642  0.90384805  0.04591470     1.37470
O332        O  0.08408580  0.90822030  0.05319726    -0.57150
O333        O  0.13140478  0.84584396  0.04997882    -0.55960
C334        C  0.16253928  0.95941588  0.02392265     0.77800
O335        O  0.17716074  0.85510505  0.03568823    -0.58330
O336        O  0.09370194  0.89682722  0.02483610    -0.56780
O337        O  0.18153264  0.91318851  0.07231869    -0.56770
O338        O  0.14300952  0.96111363  0.03731996    -0.55950
O339        O  0.91716817  0.12496122  0.94043001    -0.57150
C340        C  0.84267547  0.11047104  0.91334617     0.75480
O341        O  0.83905811  0.09689702  0.97956689    -0.58310
C342        C  0.93135721  0.12026429  0.95563236     0.75450
C343        C  0.84566021  0.19331795  0.95611446     0.77840
Cd344      Cd  0.86041965  0.12354344  0.95095689     1.37460
O345        O  0.87076220  0.10347471  0.91991085    -0.57150
O346        O  0.87404363  0.18197279  0.95263655    -0.55960
C347        C  0.84038716  0.06764056  0.97327052     0.77800
O348        O  0.82264348  0.17181269  0.95804117    -0.58330
O349        O  0.82137750  0.12178071  0.92438095    -0.56780
O350        O  0.91260703  0.11898039  0.96953932    -0.56770
O351        O  0.84771490  0.06548032  0.95655440    -0.55950
O352        O  0.91983173  0.90210089  0.05445043    -0.57150
C353        C  0.84311314  0.91802973  0.08423948     0.75480
O354        O  0.83396045  0.92741532  0.01916925    -0.58310
C355        C  0.93102071  0.90472338  0.03832540     0.75450
C356        C  0.84776067  0.83439300  0.04205557     0.77840
Cd357      Cd  0.86113877  0.90461163  0.04671458     1.37460
O358        O  0.87001995  0.92831563  0.07724558    -0.57150
O359        O  0.87360220  0.84671211  0.04935998    -0.55960
C360        C  0.83828117  0.95748013  0.02375322     0.77800
O361        O  0.82661496  0.85515753  0.03651449    -0.58330
O362        O  0.82316066  0.90300426  0.07350173    -0.56780
O363        O  0.90982038  0.90839484  0.02570562    -0.56770
O364        O  0.85042329  0.96260501  0.03948517    -0.55950
O365        O  0.07321355  0.60784904  0.04992845    -0.57150
C366        C  0.14568733  0.60694614  0.08143128     0.75480
O367        O  0.15222543  0.59607697  0.01455286    -0.58310
C368        C  0.06003035  0.61946521  0.03564084     0.75450
C369        C  0.14899202  0.69130094  0.04111401     0.77840
Cd370      Cd  0.13128243  0.62156978  0.04351014     1.37460
O371        O  0.11715781  0.60498009  0.07418496    -0.57150
O372        O  0.12658190  0.67935607  0.05128977    -0.55960
C373        C  0.15078422  0.56675549  0.02065541     0.77800
O374        O  0.16637960  0.67052920  0.03245829    -0.58330
O375        O  0.16924820  0.61470987  0.07065322    -0.56780
O376        O  0.07994179  0.63322115  0.02453267    -0.56770
O377        O  0.14491626  0.56352342  0.03752503    -0.55950
O378        O  0.07422063  0.39538648  0.93910025    -0.57150
C379        C  0.15300707  0.41344463  0.91148273     0.75480
O380        O  0.16666421  0.42829411  0.97267959    -0.58310
C381        C  0.06210214  0.39620075  0.95505346     0.75450
C382        C  0.14941895  0.32947567  0.95442013     0.77840
Cd383      Cd  0.13283446  0.39842755  0.94847751     1.37460
O384        O  0.12440275  0.41964555  0.91750551    -0.57150
O385        O  0.12644835  0.33912720  0.94400423    -0.55960
C386        C  0.14951413  0.45433108  0.97167895     0.77800
O387        O  0.16654117  0.35198982  0.96225943    -0.58330
O388        O  0.17373846  0.40279222  0.92304661    -0.56780
O389        O  0.08254085  0.39623947  0.96828006    -0.56770
O390        O  0.12728647  0.45467512  0.95946217    -0.55950
O391        O  0.86168642  0.60071091  0.07588321    -0.57150
C392        C  0.91697929  0.61331554  0.03715077     0.75480
O393        O  0.81446847  0.59650338  0.01943312    -0.58310
C394        C  0.83343015  0.60232062  0.08331456     0.75450
C395        C  0.83934958  0.69080027  0.04383388     0.77840
Cd396      Cd  0.84718165  0.61996571  0.04599781     1.37470
O397        O  0.90476192  0.60716608  0.05264296    -0.57150
O398        O  0.85390023  0.67625485  0.05676654    -0.55960
C399        C  0.81894071  0.56698377  0.02463570     0.77800
O400        O  0.82439721  0.67235999  0.03231292    -0.58330
O401        O  0.89677060  0.62313211  0.02507998    -0.56780
O402        O  0.80997449  0.61226658  0.07309728    -0.56770
O403        O  0.83185388  0.56323355  0.04023199    -0.55950
O404        O  0.90744077  0.43036906  0.94517920    -0.57150
C405        C  0.83546848  0.41976597  0.91236643     0.75480
O406        O  0.81871393  0.35556631  0.95861331    -0.58310
C407        C  0.92059925  0.41412747  0.95801684     0.75450
C408        C  0.82134263  0.45638964  0.97501353     0.77840
Cd409      Cd  0.84977532  0.40871693  0.95030271     1.37470
O410        O  0.86086618  0.43204452  0.92015827    -0.57150
O411        O  0.82438298  0.46266217  0.95816845    -0.55960
C412        C  0.84188297  0.33706259  0.95304500     0.77800
O413        O  0.82671744  0.42693000  0.97989351    -0.58330
O414        O  0.81465118  0.40445918  0.92238765    -0.56780
O415        O  0.90096558  0.39775386  0.96813587    -0.56770
O416        O  0.86603913  0.35169130  0.94539956    -0.55950
C417        C  0.84441361  0.51926236  0.01098148    -0.05120
C418        C  0.81571975  0.53815117  0.01233908     0.00810
C419        C  0.78725182  0.52945863  0.00185511    -0.07760
C420        C  0.78894377  0.50176449  0.98995029    -0.05140
C421        C  0.81817141  0.48318811  0.98859450     0.00800
C422        C  0.84642058  0.49241360  0.99906538    -0.07670
C423        C  0.87953316  0.47550677  0.99665228     0.62710
H424        H  0.86606581  0.52665230  0.01895400     0.13400
H425        H  0.76778085  0.49467730  0.98154501     0.13410
C426        C  0.75542360  0.54871441  0.00368791     0.62940
F427        F  0.90444889  0.49053513  0.00697621    -0.22230
F428        F  0.88860780  0.47717331  0.97841971    -0.19560
F429        F  0.87703180  0.44274092  0.00199203    -0.19230
F430        F  0.76044257  0.58079940  0.99759210    -0.19280
F431        F  0.74583456  0.54939478  0.02187269    -0.19610
F432        F  0.72979003  0.53451807  0.99356039    -0.22280
C433        C  0.01397753  0.43066054  0.96247676    -0.05120
C434        C  0.02599316  0.39935086  0.95784583     0.00810
C435        C  0.00337397  0.37290415  0.95466754    -0.07760
C436        C  0.96918569  0.37895325  0.95550453    -0.05140
C437        C  0.95701242  0.41042845  0.95946854     0.00800
C438        C  0.97961509  0.43665397  0.96345841    -0.07670
C439        C  0.96768925  0.46997823  0.96986621     0.62710
H440        H  0.03179428  0.45045490  0.96513991     0.13400
H441        H  0.95170252  0.35937577  0.95273451     0.13410
C442        C  0.01528075  0.33820069  0.95117535     0.62940
F443        F  0.99369949  0.49226523  0.97265935    -0.22230
F444        F  0.95147504  0.46565414  0.98631935    -0.19560
F445        F  0.94634282  0.48338354  0.95709657    -0.19230
F446        F  0.03271914  0.32796703  0.96640014    -0.19280
F447        F  0.03549921  0.33783570  0.93589442    -0.19610
F448        F  0.98929781  0.31594900  0.94825785    -0.22280
C449        C  0.96878030  0.63459317  0.02283100    -0.05120
C450        C  0.95316969  0.61065691  0.03387230     0.00810
C451        C  0.97273771  0.58654407  0.04273243    -0.07760
C452        C  0.00746452  0.58976611  0.04201433    -0.05140
C453        C  0.02340314  0.61585775  0.03262434     0.00800
C454        C  0.00371683  0.63769373  0.02196386    -0.07670
C455        C  0.01879250  0.66580585  0.01094139     0.62710
H456        H  0.95331541  0.65228869  0.01581936     0.13400
H457        H  0.02251770  0.57223475  0.04943449     0.13410
C458        C  0.95733699  0.55735064  0.05292437     0.62940
F459        F  0.99504678  0.68328793  0.00134637    -0.22230
F460        F  0.04124007  0.65374551  0.99836670    -0.19560
F461        F  0.03446587  0.68748717  0.02279060    -0.19230
F462        F  0.93228524  0.54300907  0.04243794    -0.19280
F463        F  0.94449550  0.56779680  0.06946391    -0.19610
F464        F  0.98051063  0.53317543  0.05655577    -0.22280
C465        C  0.18161407  0.52667612  0.00109096    -0.05120
C466        C  0.15147518  0.53757825  0.00847557     0.00810
C467        C  0.12142689  0.52067140  0.00406437    -0.07760
C468        C  0.12247159  0.49342226  0.99220491    -0.05140
C469        C  0.15239768  0.48224396  0.98479192     0.00800
C470        C  0.18262835  0.49882310  0.98931948    -0.07670
C471        C  0.21538002  0.48775528  0.98133061     0.62710
H472        H  0.20426179  0.54005507  0.00466611     0.13400
H473        H  0.09961418  0.48039189  0.98860038     0.13410
C474        C  0.08816463  0.53189005  0.01155686     0.62940
F475        F  0.24141836  0.50864811  0.98638757    -0.22230
F476        F  0.21338644  0.48749525  0.96240716    -0.19560
F477        F  0.22244716  0.45624903  0.98748144    -0.19230
F478        F  0.08299746  0.56453595  0.00675675    -0.19280
F479        F  0.08793891  0.52907302  0.03043205    -0.19610
F480        F  0.06185374  0.51309153  0.00473035    -0.22280
C481        C  0.87269578  0.77910164  0.04388115    -0.05120
C482        C  0.84394037  0.79757700  0.04050863     0.00810
C483        C  0.81356014  0.78033997  0.03673528    -0.07760
C484        C  0.81300990  0.74529303  0.03752506    -0.05140
C485        C  0.84150533  0.72733789  0.04207379     0.00800
C486        C  0.87217068  0.74445156  0.04471538    -0.07670
C487        C  0.90461138  0.72640335  0.04816919     0.62710
H488        H  0.89602788  0.79212981  0.04626563     0.13400
H489        H  0.79005626  0.73160058  0.03508980     0.13410
C490        C  0.78181695  0.79849268  0.03222406     0.62940
F491        F  0.93199921  0.74747239  0.04704325    -0.22230
F492        F  0.90859662  0.70166399  0.03525756    -0.19560
F493        F  0.90440577  0.71269663  0.06551945    -0.19230
F494        F  0.78628075  0.81697516  0.01645116    -0.19280
F495        F  0.77355095  0.81914507  0.04658830    -0.19610
F496        F  0.75531125  0.77686771  0.02927335    -0.22280
C497        C  0.87009532  0.24862744  0.96147550    -0.05120
C498        C  0.84125555  0.22995359  0.95760673     0.00810
C499        C  0.81135013  0.24692213  0.95361706    -0.07760
C500        C  0.81205659  0.28205029  0.95299220    -0.05140
C501        C  0.84171996  0.30036915  0.95557460     0.00800
C502        C  0.87113951  0.28325224  0.96027449    -0.07670
C503        C  0.90422036  0.30097995  0.96334201     0.62710
H504        H  0.89269322  0.23562251  0.96473317     0.13400
H505        H  0.78972348  0.29544301  0.94967536     0.13410
C506        C  0.77926098  0.22828865  0.94932937     0.62940
F507        F  0.92790972  0.28034331  0.97077268    -0.22230
F508        F  0.90040424  0.32725438  0.97528743    -0.19560
F509        F  0.91603241  0.31218762  0.94667884    -0.19230
F510        F  0.76969026  0.20966151  0.96435427    -0.19280
F511        F  0.78385688  0.20764471  0.93443789    -0.19610
F512        F  0.75363508  0.24953106  0.94512798    -0.22280
C513        C  0.82364033  0.04271266  0.00303495    -0.05120
C514        C  0.83520908  0.03776720  0.98506217     0.00810
C515        C  0.84411182  0.00513428  0.97954017    -0.07760
C516        C  0.84197333  0.97935046  0.99244189    -0.05140
C517        C  0.83283559  0.98495288  0.01067148     0.00800
C518        C  0.82261792  0.01695979  0.01604069    -0.07670
C519        C  0.81074119  0.02410214  0.03536551     0.62710
H520        H  0.81664383  0.06741874  0.00713785     0.13400
H521        H  0.84968447  0.95468721  0.98867588     0.13410
C522        C  0.85764887  0.99719769  0.96058156     0.62940
F523        F  0.79619132  0.05488604  0.03663472    -0.22230
F524        F  0.83728517  0.02364083  0.04742418    -0.19560
F525        F  0.78732526  0.00051955  0.04056270    -0.19230
F526        F  0.88701189  0.01468544  0.95769094    -0.19280
F527        F  0.83457012  0.00529529  0.94730709    -0.19610
F528        F  0.86447420  0.96387362  0.95852294    -0.22280
C529        C  0.98318643  0.87611739  0.04391943    -0.05120
C530        C  0.96702284  0.90193206  0.03484668     0.00810
C531        C  0.98595677  0.92512254  0.02435402    -0.07760
C532        C  0.02080351  0.92273740  0.02443749    -0.05140
C533        C  0.03673740  0.89830472  0.03461204     0.00800
C534        C  0.01786653  0.87370080  0.04379424    -0.07670
C535        C  0.03447347  0.84476329  0.05313884     0.62710
H536        H  0.96838027  0.85821729  0.05153435     0.13400
H537        H  0.03597894  0.94088019  0.01728562     0.13410
C538        C  0.96999808  0.95264854  0.01345089     0.62940
F539        F  0.01151526  0.82173299  0.05955702    -0.22230
F540        F  0.05336354  0.85578121  0.06782314    -0.19560
F541        F  0.05474941  0.82907883  0.04070301    -0.19230
F542        F  0.94913772  0.97074964  0.02462622    -0.19280
F543        F  0.95235855  0.93880820  0.99908382    -0.19610
F544        F  0.99322443  0.97418409  0.00577622    -0.22280
C545        C  0.12761005  0.78173358  0.03586244    -0.05120
C546        C  0.15808120  0.79775032  0.03914698     0.00810
C547        C  0.18715308  0.77855582  0.04102646    -0.07760
C548        C  0.18391260  0.74349400  0.04094847    -0.05140
C549        C  0.15263868  0.72776551  0.03903223     0.00800
C550        C  0.12429412  0.74729765  0.03569535    -0.07670
C551        C  0.09056342  0.73195422  0.03141712     0.62710
H552        H  0.10588361  0.79667276  0.03372687     0.13400
H553        H  0.20547581  0.72821088  0.04303155     0.13410
C554        C  0.22094678  0.79490143  0.04363487     0.62940
F555        F  0.06804555  0.75517437  0.02535961    -0.22230
F556        F  0.07742879  0.71726727  0.04695347    -0.19560
F557        F  0.09415270  0.70861688  0.01770468    -0.19230
F558        F  0.22066115  0.81485909  0.05904492    -0.19280
F559        F  0.22855774  0.81397666  0.02844865    -0.19610
F560        F  0.24574634  0.77180298  0.04579520    -0.22280
C561        C  0.13145659  0.23849001  0.96231247    -0.05120
C562        C  0.16122462  0.22400707  0.95687710     0.00810
C563        C  0.18935827  0.24454235  0.95327080    -0.07760
C564        C  0.18554719  0.27940233  0.95378669    -0.05140
C565        C  0.15450051  0.29357324  0.95745115     0.00800
C566        C  0.12744037  0.27274431  0.96246173    -0.07670
C567        C  0.09337028  0.28625795  0.96642115     0.62710
H568        H  0.11033769  0.22248319  0.96541862     0.13400
H569        H  0.20617083  0.29571793  0.95026864     0.13410
C570        C  0.22246384  0.22979989  0.94810323     0.62940
F571        F  0.07260963  0.26287650  0.97451464    -0.22230
F572        F  0.07916515  0.29560411  0.95003348    -0.19560
F573        F  0.09589087  0.31314699  0.97814336    -0.19230
F574        F  0.21874954  0.21043797  0.93256299    -0.19280
F575        F  0.23391062  0.21047246  0.96235312    -0.19610
F576        F  0.24623939  0.25406304  0.94454636    -0.22280
C577        C  0.98514638  0.12788814  0.97234620    -0.05120
C578        C  0.96787451  0.11612276  0.95680550     0.00810
C579        C  0.98574223  0.10040027  0.94260582    -0.07760
C580        C  0.02043551  0.09982510  0.94368163    -0.05140
C581        C  0.03813949  0.11380387  0.95843598     0.00800
C582        C  0.02022652  0.12684420  0.97352099    -0.07670
C583        C  0.03766988  0.14016096  0.99053688     0.62710
H584        H  0.97098330  0.13879214  0.98332700     0.13400
H585        H  0.03419288  0.08885759  0.93254564     0.13410
C586        C  0.96864126  0.08390262  0.92628622     0.62940
F587        F  0.01535057  0.15174983  0.00337054    -0.22230
F588        F  0.05884383  0.16608601  0.98587362    -0.19560
F589        F  0.05566423  0.11519858  0.99868363    -0.19230
F590        F  0.95644331  0.10778041  0.91459212    -0.19280
F591        F  0.94287834  0.06356052  0.93223301    -0.19610
F592        F  0.99025359  0.06446329  0.91637637    -0.22280
C593        C  0.16443669  0.04673438  0.00406340    -0.05120
C594        C  0.17402964  0.04018525  0.98601453     0.00810
C595        C  0.18426573  0.00792024  0.98114857    -0.07760
C596        C  0.18223267  0.98271054  0.99441357    -0.05140
C597        C  0.16943582  0.98856669  0.01202729     0.00800
C598        C  0.16127438  0.02152233  0.01716440    -0.07670
C599        C  0.14782661  0.03048882  0.03598422     0.62710
H600        H  0.15679349  0.07159487  0.00748089     0.13400
H601        H  0.18878123  0.95768880  0.99067617     0.13410
C602        C  0.19690772  0.99986117  0.96208067     0.62940
F603        F  0.14630415  0.06443406  0.03851209    -0.22230
F604        F  0.16823608  0.01805125  0.04953467    -0.19560
F605        F  0.11591634  0.01775052  0.03795166    -0.19230
F606        F  0.22052113  0.02319719  0.95681657    -0.19280
F607        F  0.17085839  0.99969576  0.94968913    -0.19610
F608        F  0.21151700  0.96903804  0.96146045    -0.22280
C609        C  0.82912159  0.08251752  0.86398254    -0.05120
C610        C  0.83739446  0.11209174  0.85475069     0.00810
C611        C  0.84596854  0.14085146  0.86507514    -0.07760
C612        C  0.84510295  0.13927315  0.88422589    -0.05140
C613        C  0.83726145  0.10992427  0.89340844     0.00800
C614        C  0.82900625  0.08098332  0.88335208    -0.07670
C615        C  0.82024520  0.04898392  0.89316540     0.62710
H616        H  0.82310665  0.06067534  0.85594304     0.13400
H617        H  0.85191881  0.16087169  0.89232536     0.13410
C618        C  0.85841282  0.17256703  0.85603033     0.62940
F619        F  0.81190263  0.02386052  0.88099818    -0.22230
F620        F  0.79340945  0.05401860  0.90459592    -0.19560
F621        F  0.84704344  0.03884521  0.90354221    -0.19230
F622        F  0.83281675  0.18724965  0.84650019    -0.19280
F623        F  0.88410753  0.16534282  0.84418157    -0.19610
F624        F  0.87042557  0.19535400  0.86869214    -0.22280
C625        C  0.74322818  0.08870634  0.76554027    -0.05120
C626        C  0.77500293  0.09556845  0.75838219     0.00810
C627        C  0.77851711  0.10081414  0.73924932    -0.07760
C628        C  0.74981339  0.10017982  0.72819809    -0.05140
C629        C  0.71775573  0.09584427  0.73554939     0.00800
C630        C  0.71437428  0.08914863  0.75456094    -0.07670
C631        C  0.68064296  0.08430008  0.76357421     0.62710
H632        H  0.74101435  0.08454195  0.78012891     0.13400
H633        H  0.75212129  0.10474110  0.71365546     0.13410
C634        C  0.81186976  0.10926613  0.73052424     0.62940
F635        F  0.68334290  0.07914358  0.78226730    -0.22230
F636        F  0.66458218  0.05693870  0.75608776    -0.19560
F637        F  0.66160001  0.11217397  0.76096057    -0.19230
F638        F  0.83341836  0.08323401  0.73287340    -0.19280
F639        F  0.82520518  0.13761725  0.73848793    -0.19610
F640        F  0.80904717  0.11509099  0.71189494    -0.22280
C641        C  0.18734648  0.10511397  0.86152048    -0.05120
C642        C  0.16056474  0.08830441  0.85309120     0.00810
C643        C  0.13750015  0.07051785  0.86405216    -0.07760
C644        C  0.14028620  0.07308713  0.88320340    -0.05140
C645        C  0.16496898  0.09295224  0.89169346     0.00800
C646        C  0.19025823  0.10759348  0.88070066    -0.07670
C647        C  0.21936750  0.12694802  0.88887754     0.62710
H648        H  0.20519438  0.11784075  0.85283930     0.13400
H649        H  0.12189721  0.06083707  0.89173170     0.13410
C650        C  0.10884230  0.05067898  0.85571477     0.62940
F651        F  0.24155958  0.13762272  0.87559184    -0.22230
F652        F  0.23651997  0.10699630  0.90093346    -0.19560
F653        F  0.20799454  0.15460707  0.89798330    -0.19230
F654        F  0.12118747  0.02572383  0.84479205    -0.19280
F655        F  0.08910556  0.07120087  0.84528065    -0.19610
F656        F  0.08892134  0.03605765  0.86896357    -0.22280
C657        C  0.01347958  0.07708334  0.79237168    -0.05120
C658        C  0.03189655  0.10695496  0.79217925     0.00810
C659        C  0.01480962  0.13725030  0.79014590    -0.07760
C660        C  0.97998665  0.13667299  0.78978681    -0.05140
C661        C  0.96119803  0.10715386  0.79110621     0.00800
C662        C  0.97825315  0.07654589  0.79182142    -0.07670
C663        C  0.95972739  0.04357182  0.79230283     0.62710
H664        H  0.02695465  0.05414968  0.79342849     0.13400
H665        H  0.96705374  0.15988929  0.78865198     0.13410
C666        C  0.03296833  0.17025174  0.78764404     0.62940
F667        F  0.98119452  0.01712374  0.79322336    -0.22230
F668        F  0.94079803  0.03990907  0.77656541    -0.19560
F669        F  0.93931083  0.04219667  0.80750550    -0.19230
F670        F  0.05625339  0.16733790  0.77386566    -0.19280
F671        F  0.04847038  0.17968658  0.80378918    -0.19610
F672        F  0.01160110  0.19533376  0.78272025    -0.22280
C673        C  0.47466582  0.12044148  0.71619989    -0.05120
C674        C  0.45930359  0.09603926  0.70534583     0.00810
C675        C  0.47890479  0.07344287  0.69544459    -0.07760
C676        C  0.51385041  0.07649548  0.69651447    -0.05140
C677        C  0.52912636  0.10229760  0.70649909     0.00800
C678        C  0.50936644  0.12429956  0.71676212    -0.07670
C679        C  0.52483015  0.15258988  0.72766297     0.62710
H680        H  0.45908005  0.13773652  0.72343262     0.13400
H681        H  0.52942264  0.06014502  0.68863470     0.13410
C682        C  0.46282009  0.04764786  0.68306310     0.62940
F683        F  0.50152909  0.16899632  0.73808914    -0.22230
F684        F  0.53907964  0.17522586  0.71576358    -0.19560
F685        F  0.54890536  0.14057862  0.73937268    -0.19230
F686        F  0.44445567  0.06315928  0.66960278    -0.19280
F687        F  0.44199252  0.02734689  0.69325212    -0.19610
F688        F  0.48619574  0.02804742  0.67458854    -0.22280
C689        C  0.24068205  0.06175604  0.75969413    -0.05120
C690        C  0.21327234  0.08194281  0.75622256     0.00810
C691        C  0.21275395  0.10181518  0.74030249    -0.07760
C692        C  0.24010285  0.10124886  0.72850758    -0.05140
C693        C  0.26873739  0.08285403  0.73239869     0.00800
C694        C  0.26855524  0.06155508  0.74793919    -0.07670
C695        C  0.29743010  0.03913779  0.75241860     0.62710
H696        H  0.24056389  0.04710061  0.77210238     0.13400
H697        H  0.23984084  0.11693851  0.71651529     0.13410
C698        C  0.18468526  0.12576747  0.73651379     0.62940
F699        F  0.29024751  0.01824882  0.76696233    -0.22230
F700        F  0.32511542  0.05801385  0.75712592    -0.19560
F701        F  0.30455347  0.01957697  0.73739962    -0.19230
F702        F  0.18175683  0.14753304  0.75103946    -0.19280
F703        F  0.15511198  0.10840830  0.73418803    -0.19610
F704        F  0.19020486  0.14436789  0.72086028    -0.22280
C705        C  0.66015400  0.24634275  0.69592998    -0.05120
C706        C  0.64109352  0.23036493  0.70943521     0.00810
C707        C  0.62557409  0.24969675  0.72315095    -0.07760
C708        C  0.62645955  0.28454210  0.72133518    -0.05140
C709        C  0.64308163  0.30021430  0.70669898     0.00800
C710        C  0.66197675  0.28081825  0.69442561    -0.07670
C711        C  0.68416516  0.29586240  0.67966817     0.62710
H712        H  0.67325582  0.23138145  0.68605633     0.13400
H713        H  0.61330824  0.29976631  0.73104102     0.13410
C714        C  0.60778681  0.23404926  0.73935091     0.62940
F715        F  0.70537676  0.27274302  0.67224253    -0.22230
F716        F  0.70368909  0.32102902  0.68703369    -0.19560
F717        F  0.66488747  0.30813818  0.66558580    -0.19230
F718        F  0.62987582  0.21533881  0.74937081    -0.19280
F719        F  0.58197032  0.21402745  0.73325528    -0.19610
F720        F  0.59466692  0.25760568  0.75097479    -0.22280
C721        C  0.84810283  0.39657269  0.86303609    -0.05120
C722        C  0.83257906  0.42254868  0.85377424     0.00810
C723        C  0.81624387  0.44747118  0.86383306    -0.07760
C724        C  0.81664855  0.44570410  0.88318302    -0.05140
C725        C  0.83284895  0.41985426  0.89229377     0.00800
C726        C  0.84882681  0.39493622  0.88215497    -0.07670
C727        C  0.86706249  0.36694085  0.89159679     0.62710
H728        H  0.86048051  0.37776310  0.85507713     0.13400
H729        H  0.80478260  0.46458423  0.89130741     0.13410
C730        C  0.79787523  0.47495351  0.85417172     0.62940
F731        F  0.88046256  0.34496288  0.87915951    -0.22230
F732        F  0.84528460  0.34947054  0.90273143    -0.19560
F733        F  0.89278898  0.37979286  0.90215165    -0.19230
F734        F  0.77463316  0.46138845  0.84222422    -0.19280
F735        F  0.82010246  0.49448938  0.84443345    -0.19610
F736        F  0.78137909  0.49504029  0.86643411    -0.22280
C737        C  0.88071442  0.28636934  0.79688565    -0.05120
C738        C  0.85859922  0.30230616  0.78506911     0.00810
C739        C  0.83880312  0.28308762  0.77281500    -0.07760
C740        C  0.83996067  0.24815837  0.77403979    -0.05140
C741        C  0.86013037  0.23241106  0.78706159     0.00800
C742        C  0.88217398  0.25178798  0.79799260    -0.07670
C743        C  0.90711210  0.23632176  0.81096227     0.62710
H744        H  0.89628680  0.30143703  0.80584129     0.13400
H745        H  0.82399422  0.23291109  0.76541904     0.13410
C746        C  0.81557242  0.29922889  0.75919625     0.62940
F747        F  0.93063396  0.25921955  0.81702160    -0.22230
F748        F  0.92379476  0.21116836  0.80217944    -0.19560
F749        F  0.89078875  0.22381853  0.82611562    -0.19230
F750        F  0.83379386  0.31853515  0.74710139    -0.19280
F751        F  0.79320157  0.31887435  0.76839188    -0.19610
F752        F  0.79769090  0.27599570  0.74909061    -0.22280
C753        C  0.76400168  0.40208990  0.75036967    -0.05120
C754        C  0.77305722  0.43197524  0.75877834     0.00810
C755        C  0.75593113  0.46129896  0.75447699    -0.07760
C756        C  0.72896942  0.45926571  0.74205383    -0.05140
C757        C  0.71985602  0.42902353  0.73376765     0.00800
C758        C  0.73776419  0.39995186  0.73788123    -0.07670
C759        C  0.72853240  0.36634536  0.72974471     0.62710
H760        H  0.77774416  0.38008500  0.75386095     0.13400
H761        H  0.71495129  0.48112719  0.73867526     0.13410
C762        C  0.76571370  0.49402563  0.76324054     0.62940
F763        F  0.74752909  0.34111950  0.73692651    -0.22230
F764        F  0.73344293  0.36677593  0.71102588    -0.19560
F765        F  0.69562714  0.35895632  0.73348483    -0.19230
F766        F  0.79800304  0.50230770  0.75843822    -0.19280
F767        F  0.76363143  0.49140259  0.78209413    -0.19610
F768        F  0.74524603  0.51937691  0.75763033    -0.22280
C769        C  0.17360819  0.39151196  0.86249129    -0.05120
C770        C  0.15671041  0.41647618  0.85299710     0.00810
C771        C  0.14427565  0.44387009  0.86290904    -0.07760
C772        C  0.14601678  0.44322142  0.88219436    -0.05140
C773        C  0.16022784  0.41665425  0.89168522     0.00800
C774        C  0.17563435  0.39101202  0.88170432    -0.07670
C775        C  0.19213214  0.36201606  0.89118926     0.62710
H776        H  0.18393775  0.37131345  0.85468952     0.13400
H777        H  0.13480303  0.46278149  0.89011540     0.13410
C778        C  0.12784737  0.47282010  0.85341570     0.62940
F779        F  0.20460542  0.33942709  0.87878503    -0.22230
F780        F  0.16930992  0.34547891  0.90214075    -0.19560
F781        F  0.21834973  0.37348743  0.90184076    -0.19230
F782        F  0.10033211  0.46177493  0.84364968    -0.19280
F783        F  0.15026662  0.48790966  0.84163530    -0.19610
F784        F  0.11742147  0.49652120  0.86577795    -0.22280
C785        C  0.17210087  0.27257905  0.78580165    -0.05120
C786        C  0.14075357  0.28695338  0.78357142     0.00810
C787        C  0.11284170  0.26625842  0.77963834    -0.07760
C788        C  0.11689378  0.23182839  0.77950281    -0.05140
C789        C  0.14754964  0.21747123  0.78338632     0.00800
C790        C  0.17612317  0.23800687  0.78551067    -0.07670
C791        C  0.21066616  0.22363562  0.78694955     0.62710
H792        H  0.19342490  0.28871286  0.78828595     0.13400
H793        H  0.09549383  0.21570456  0.77752599     0.13410
C794        C  0.07842979  0.28004173  0.77717504     0.62940
F795        F  0.23513143  0.24797037  0.78552175    -0.22230
F796        F  0.21533047  0.20111673  0.77292014    -0.19560
F797        F  0.21457708  0.20794405  0.80360835    -0.19230
F798        F  0.07795493  0.30057214  0.76204163    -0.19280
F799        F  0.07021810  0.29736693  0.79277022    -0.19610
F800        F  0.05450423  0.25547908  0.77454313    -0.22280
C801        C  0.97248124  0.39068961  0.78996764    -0.05120
C802        C  0.95836736  0.42208405  0.79020129     0.00810
C803        C  0.97935301  0.45056362  0.78950429    -0.07760
C804        C  0.01432095  0.44623423  0.78981777    -0.05140
C805        C  0.02823874  0.41444732  0.79090131     0.00800
C806        C  0.00675685  0.38626878  0.79027754    -0.07670
C807        C  0.01969655  0.35129987  0.78971742     0.62710
H808        H  0.95608713  0.36911965  0.79002165     0.13400
H809        H  0.03094622  0.46758826  0.78985150     0.13410
C810        C  0.96490780  0.48498140  0.78907747     0.62940
F811        F  0.99515693  0.32823914  0.78524327    -0.22230
F812        F  0.03220942  0.34302300  0.80674095    -0.19560
F813        F  0.04417043  0.34947512  0.77654568    -0.19230
F814        F  0.94485696  0.48954820  0.80421137    -0.19280
F815        F  0.94619583  0.48875925  0.77331899    -0.19610
F816        F  0.98949765  0.50932578  0.78923278    -0.22280
C817        C  0.38412759  0.27157823  0.70500431    -0.05120
C818        C  0.35548901  0.28767232  0.71101362     0.00810
C819        C  0.32892269  0.26903294  0.71873108    -0.07760
C820        C  0.33098050  0.23420477  0.71885496    -0.05140
C821        C  0.35877107  0.21816877  0.71168245     0.00800
C822        C  0.38639420  0.23693572  0.70542793    -0.07670
C823        C  0.41797370  0.22019563  0.69916168     0.62710
H824        H  0.40441194  0.28640122  0.69946955     0.13400
H825        H  0.31022778  0.21919041  0.72365144     0.13410
C826        C  0.29797321  0.28579159  0.72582265     0.62940
F827        F  0.44297927  0.24298630  0.69521842    -0.22230
F828        F  0.41175510  0.20165421  0.68356291    -0.19560
F829        F  0.42928544  0.19956500  0.71288393    -0.19230
F830        F  0.28381461  0.30439337  0.71202229    -0.19280
F831        F  0.30632065  0.30632689  0.74034579    -0.19610
F832        F  0.27440297  0.26303513  0.73188620    -0.22280
C833        C  0.47759409  0.38244492  0.70544134    -0.05120
C834        C  0.45922394  0.41178180  0.70569974     0.00810
C835        C  0.47661688  0.44270973  0.70627311    -0.07760
C836        C  0.51181191  0.44284483  0.70559580    -0.05140
C837        C  0.52971092  0.41332862  0.70407906     0.00800
C838        C  0.51233415  0.38249546  0.70453716    -0.07670
C839        C  0.53009277  0.34939672  0.70409905     0.62710
H840        H  0.46434747  0.35889395  0.70543303     0.13400
H841        H  0.52561702  0.46608525  0.70556845     0.13410
C842        C  0.45841426  0.47532514  0.70707489     0.62940
F843        F  0.50888421  0.32313172  0.70819241    -0.22230
F844        F  0.55557596  0.34936078  0.71686423    -0.19560
F845        F  0.54285386  0.34385432  0.68680818    -0.19230
F846        F  0.43976844  0.47669886  0.72294343    -0.19280
F847        F  0.43774496  0.47816239  0.69199952    -0.19610
F848        F  0.48013604  0.50224329  0.70709310    -0.22280
C849        C  0.27783164  0.41925674  0.75351774    -0.05120
C850        C  0.27100834  0.42216360  0.73473955     0.00810
C851        C  0.23782384  0.42766530  0.72898036    -0.07760
C852        C  0.21241756  0.42760327  0.74221547    -0.05140
C853        C  0.21879119  0.42154429  0.76086859     0.00800
C854        C  0.25245290  0.41835467  0.76675371    -0.07670
C855        C  0.26212369  0.41250034  0.78666161     0.62710
H856        H  0.30331391  0.41533533  0.75769375     0.13400
H857        H  0.18690754  0.43046954  0.73780564     0.13410
C858        C  0.22881413  0.43294465  0.70897695     0.62940
F859        F  0.29623496  0.41376961  0.78924265    -0.22230
F860        F  0.25105747  0.38146317  0.79215935    -0.19560
F861        F  0.24850292  0.43660495  0.79770779    -0.19230
F862        F  0.23084833  0.40333956  0.69952984    -0.19280
F863        F  0.25020688  0.45611489  0.70124489    -0.19610
F864        F  0.19675331  0.44444994  0.70698535    -0.22280
C865        C  0.80627766  0.60150241  0.13340832    -0.05120
C866        C  0.83498706  0.58872263  0.14163252     0.00810
C867        C  0.86004892  0.57510343  0.13050085    -0.07760
C868        C  0.85683738  0.57773480  0.11140409    -0.05140
C869        C  0.82984271  0.59385336  0.10310199     0.00800
C870        C  0.80291527  0.60391568  0.11423196    -0.07670
C871        C  0.77133374  0.61812252  0.10620571     0.62710
H872        H  0.78710673  0.61114541  0.14223557     0.13400
H873        H  0.87656940  0.56862969  0.10279954     0.13410
C874        C  0.89115686  0.55995063  0.13863983     0.62940
F875        F  0.74772283  0.62396039  0.11954937    -0.22230
F876        F  0.75757544  0.59593040  0.09376839    -0.19560
F877        F  0.77838624  0.64786366  0.09756637    -0.19230
F878        F  0.88243436  0.53289998  0.14929038    -0.19280
F879        F  0.90789161  0.58315431  0.14931024    -0.19610
F880        F  0.91282926  0.54922383  0.12525170    -0.22280
C881        C  0.75382718  0.58462981  0.26608547    -0.05120
C882        C  0.72147217  0.58252756  0.25879984     0.00810
C883        C  0.71715396  0.57781794  0.23967299    -0.07760
C884        C  0.74557452  0.57713968  0.22848971    -0.05140
C885        C  0.77772967  0.58197703  0.23565921     0.00800
C886        C  0.78213408  0.58514646  0.25485081    -0.07670
C887        C  0.81610397  0.59163755  0.26342077     0.62710
H888        H  0.75669318  0.58786270  0.28072688     0.13400
H889        H  0.74280471  0.57472012  0.21379552     0.13410
C890        C  0.68294950  0.57573127  0.23083720     0.62940
F891        F  0.81424810  0.59583975  0.28221839    -0.22230
F892        F  0.83012548  0.62019424  0.25611437    -0.19560
F893        F  0.83658909  0.56512837  0.26005406    -0.19230
F894        F  0.66550720  0.60421776  0.23460514    -0.19280
F895        F  0.66572262  0.54846872  0.23753842    -0.19610
F896        F  0.68476732  0.57249886  0.21197809    -0.22280
C897        C  0.11991919  0.60043253  0.11188029    -0.05120
C898        C  0.14953557  0.60211270  0.10163952     0.00810
C899        C  0.18048685  0.60094798  0.11111340    -0.07760
C900        C  0.18035993  0.60126613  0.13048942    -0.05140
C901        C  0.15057739  0.60154125  0.14044655     0.00800
C902        C  0.11984568  0.60042969  0.13106775    -0.07670
C903        C  0.08696526  0.60149078  0.14130122     0.62710
H904        H  0.09631026  0.60061549  0.10474880     0.13400
H905        H  0.20355497  0.60221093  0.13805135     0.13410
C906        C  0.21342916  0.59935004  0.10108566     0.62940
F907        F  0.05994486  0.60153066  0.12951835    -0.22230
F908        F  0.08578384  0.62994751  0.15183835    -0.19560
F909        F  0.08383422  0.57406720  0.15252407    -0.19230
F910        F  0.21965006  0.62889594  0.09208257    -0.19280
F911        F  0.21251091  0.57358320  0.08857022    -0.19610
F912        F  0.23965004  0.59385503  0.11297930    -0.22280
C913        C  0.97876916  0.63829298  0.20220026    -0.05120
C914        C  0.96342526  0.60694537  0.20330081     0.00810
C915        C  0.98345885  0.57860851  0.20567410    -0.07760
C916        C  0.01844680  0.58276392  0.20562556    -0.05140
C917        C  0.03363531  0.61412835  0.20343052     0.00800
C918        C  0.01334906  0.64260336  0.20241445    -0.07670
C919        C  0.02763082  0.67773230  0.20179135     0.62710
H920        H  0.96321051  0.65983734  0.20093290     0.13400
H921        H  0.03424092  0.56139180  0.20679373     0.13410
C922        C  0.96824378  0.54421968  0.20772670     0.62940
F923        F  0.00347688  0.70126209  0.20467352    -0.22230
F924        F  0.04160324  0.68386262  0.18481752    -0.19560
F925        F  0.05142962  0.68184295  0.21534913    -0.19230
F926        F  0.94806949  0.53708001  0.19282150    -0.19280
F927        F  0.94962156  0.54270953  0.22360980    -0.19610
F928        F  0.99226238  0.52007296  0.20877872    -0.22280
C929        C  0.47946319  0.57823681  0.28839465    -0.05120
C930        C  0.46434580  0.60936522  0.28977936     0.00810
C931        C  0.48462561  0.63848408  0.28966170    -0.07760
C932        C  0.51918492  0.63520977  0.28966613    -0.05140
C933        C  0.53451323  0.60427566  0.28937880     0.00800
C934        C  0.51447915  0.57512493  0.28816803    -0.07670
C935        C  0.52983181  0.54106798  0.28733543     0.62710
H936        H  0.46362781  0.55630500  0.28808561     0.13400
H937        H  0.53476618  0.65728761  0.29025465     0.13410
C938        C  0.47030598  0.67321144  0.28933888     0.62940
F939        F  0.50591396  0.51606153  0.28735117    -0.22230
F940        F  0.55030544  0.53654297  0.30235571    -0.19560
F941        F  0.54822627  0.53814374  0.27145276    -0.19230
F942        F  0.45696061  0.68077645  0.30624570    -0.19280
F943        F  0.44598350  0.67520541  0.27597335    -0.19610
F944        F  0.49432572  0.69707267  0.28542291    -0.22280
C945        C  0.21698281  0.59225416  0.25086092    -0.05120
C946        C  0.22399588  0.59747354  0.23224728     0.00810
C947        C  0.25767192  0.59850842  0.22641111    -0.07760
C948        C  0.28298691  0.59664479  0.23967992    -0.05140
C949        C  0.27595817  0.59484928  0.25849488     0.00800
C950        C  0.24228831  0.59135085  0.26420348    -0.07670
C951        C  0.23254889  0.58789291  0.28423673     0.62710
H952        H  0.19121891  0.59124024  0.25511358     0.13400
H953        H  0.30868117  0.59903382  0.23543559     0.13410
C954        C  0.26731032  0.60267999  0.20640718     0.62940
F955        F  0.19951960  0.57845961  0.28618979    -0.22230
F956        F  0.23703426  0.61790834  0.29312983    -0.19560
F957        F  0.25166411  0.56400904  0.29259903    -0.19230
F958        F  0.26153153  0.63484774  0.20087092    -0.19280
F959        F  0.24905664  0.58084725  0.19560812    -0.19610
F960        F  0.30064467  0.59638294  0.20356949    -0.22280
C961        C  0.17483615  0.94556855  0.13254633    -0.05120
C962        C  0.16040632  0.91861336  0.14196303     0.00810
C963        C  0.14685562  0.89140162  0.13199189    -0.07760
C964        C  0.14826417  0.89206020  0.11288515    -0.05140
C965        C  0.16249613  0.91872674  0.10343679     0.00800
C966        C  0.17628660  0.94593621  0.11318544    -0.07670
C967        C  0.19156226  0.97516684  0.10309781     0.62710
H968        H  0.18484056  0.96617469  0.14042647     0.13400
H969        H  0.13761554  0.87171713  0.10500132     0.13410
C970        C  0.12966069  0.86219440  0.14138298     0.62940
F971        F  0.20322497  0.99933493  0.11505566    -0.22230
F972        F  0.16804696  0.98918884  0.09175410    -0.19560
F973        F  0.21794650  0.96458175  0.09260528    -0.19230
F974        F  0.10547603  0.87347019  0.15319142    -0.19280
F975        F  0.15268101  0.84410647  0.15108513    -0.19610
F976        F  0.11434505  0.84100681  0.12893435    -0.22280
C977        C  0.10952219  0.74837277  0.20812198    -0.05120
C978        C  0.13944501  0.73184454  0.21105004     0.00810
C979        C  0.16861626  0.74985075  0.21572546    -0.07760
C980        C  0.16745390  0.78462132  0.21604844    -0.05140
C981        C  0.13795718  0.80119726  0.21205166     0.00800
C982        C  0.10824893  0.78310084  0.20866129    -0.07670
C983        C  0.07581554  0.80068232  0.20496484     0.62710
H984        H  0.08751796  0.73394382  0.20457220     0.13400
H985        H  0.18986266  0.79915745  0.21860563     0.13410
C986        C  0.20083529  0.73218377  0.21975307     0.62940
F987        F  0.04952826  0.77854320  0.20265098    -0.22230
F988        F  0.07865100  0.81958634  0.18923759    -0.19560
F989        F  0.06853527  0.82115806  0.21957894    -0.19230
F990        F  0.21063459  0.71452829  0.20449285    -0.19280
F991        F  0.19610587  0.71052019  0.23421590    -0.19610
F992        F  0.22620660  0.75416210  0.22442195    -0.22280
C993        C  0.36107444  0.78353636  0.30213418    -0.05120
C994        C  0.35841465  0.80030638  0.28543038     0.00810
C995        C  0.35684799  0.78179639  0.26887584    -0.07760
C996        C  0.35658566  0.74676054  0.26994074    -0.05140
C997        C  0.35701070  0.73033587  0.28692441     0.00800
C998        C  0.36004113  0.74910303  0.30326210    -0.07670
C999        C  0.36058759  0.73325075  0.32208830     0.62710
H1000       H  0.36302921  0.79783939  0.31465581     0.13400
H1001       H  0.35502865  0.73195308  0.25759387     0.13410
C1002       C  0.35450608  0.79862970  0.25035999     0.62940
F1003       F  0.36928807  0.75561600  0.33573945    -0.22230
F1004       F  0.38329517  0.70783851  0.32261997    -0.19560
F1005       F  0.32905047  0.72123123  0.32584977    -0.19230
F1006       F  0.38310080  0.81713845  0.24718556    -0.19280
F1007       F  0.32727302  0.81914969  0.25000101    -0.19610
F1008       F  0.35095729  0.77591742  0.23623427    -0.22280
C1009       C  0.24333931  0.93165256  0.26697968    -0.05120
C1010       C  0.27526612  0.93869276  0.26009808     0.00810
C1011       C  0.27883420  0.94892784  0.24161023    -0.07760
C1012       C  0.25030101  0.94951138  0.23039728    -0.05140
C1013       C  0.21889274  0.93975205  0.23698112     0.00800
C1014       C  0.21508736  0.93120497  0.25568099    -0.07670
C1015       C  0.18207522  0.91886958  0.26341407     0.62710
H1016       H  0.24095547  0.92443154  0.28119274     0.13400
H1017       H  0.25255252  0.95577906  0.21603601     0.13410
C1018       C  0.31254535  0.95720126  0.23335856     0.62940
F1019       F  0.18467003  0.90977756  0.28164448    -0.22230
F1020       F  0.17105726  0.89136801  0.25369184    -0.19560
F1021       F  0.15875569  0.94358649  0.26221563    -0.19230
F1022       F  0.33301443  0.93005276  0.23462056    -0.19280
F1023       F  0.32684291  0.98373549  0.24260080    -0.19610
F1024       F  0.31013078  0.96577417  0.21504468    -0.22280
C1025       C  0.51895340  0.94147130  0.28921206    -0.05120
C1026       C  0.53370532  0.91006945  0.28963414     0.00810
C1027       C  0.51311676  0.88122162  0.28852709    -0.07760
C1028       C  0.47857418  0.88490861  0.28849224    -0.05140
C1029       C  0.46369054  0.91605082  0.28928153     0.00800
C1030       C  0.48402363  0.94501875  0.28905210    -0.07670
C1031       C  0.46903033  0.97926568  0.28934737     0.62710
H1032       H  0.53501002  0.96323740  0.28965415     0.13400
H1033       H  0.46264000  0.86301773  0.28826253     0.13410
C1034       C  0.52708440  0.84640545  0.28737322     0.62940
F1035       F  0.49320397  0.00398183  0.29019927    -0.22230
F1036       F  0.44868336  0.98242414  0.30448085    -0.19560
F1037       F  0.45057198  0.98401559  0.27358406    -0.19230
F1038       F  0.53990788  0.83728071  0.30419461    -0.19280
F1039       F  0.55175332  0.84525412  0.27422022    -0.19610
F1040       F  0.50291017  0.82319237  0.28257715    -0.22280
C1041       C  0.62092910  0.77353679  0.27478876    -0.05120
C1042       C  0.64533368  0.79052235  0.28507349     0.00810
C1043       C  0.67138428  0.77259198  0.29333766    -0.07760
C1044       C  0.67016133  0.73796256  0.29266882    -0.05140
C1045       C  0.64436957  0.72066568  0.28374505     0.00800
C1046       C  0.62003413  0.73857702  0.27387063    -0.07670
C1047       C  0.59262841  0.72112435  0.26308315     0.62710
H1048       H  0.60177160  0.78780954  0.26816370     0.13400
H1049       H  0.68910463  0.72396496  0.29969177     0.13410
C1050       C  0.70055724  0.78971913  0.30287722     0.62940
F1051       F  0.57095743  0.74332466  0.25517508    -0.22230
F1052       F  0.57445140  0.70055207  0.27453578    -0.19560
F1053       F  0.60642203  0.70257084  0.24917962    -0.19230
F1054       F  0.69056717  0.80221599  0.31958735    -0.19280
F1055       F  0.71277620  0.81523745  0.29206052    -0.19610
F1056       F  0.72634015  0.76810432  0.30606148    -0.22280
C1057       C  0.84964764  0.94303432  0.13445639    -0.05120
C1058       C  0.83714455  0.91412227  0.14280654     0.00810
C1059       C  0.82038823  0.88999162  0.13183486    -0.07760
C1060       C  0.82074195  0.89363791  0.11269123    -0.05140
C1061       C  0.83687519  0.92054184  0.10423003     0.00800
C1062       C  0.84959381  0.94682013  0.11525206    -0.07670
C1063       C  0.86308492  0.97867352  0.10688843     0.62710
H1064       H  0.86130002  0.96188191  0.14299129     0.13400
H1065       H  0.81027737  0.87412870  0.10414869     0.13410
C1066       C  0.80271531  0.86000068  0.14005819     0.62940
F1067       F  0.86637988  0.00352178  0.11988291    -0.22230
F1068       F  0.84156462  0.98965608  0.09345121    -0.19560
F1069       F  0.89400797  0.97339331  0.09931178    -0.19230
F1070       F  0.78397747  0.86947110  0.15499614    -0.19280
F1071       F  0.82574746  0.83684308  0.14545238    -0.19610
F1072       F  0.78136016  0.84499820  0.12755383    -0.22280
C1073       C  0.98130115  0.93143812  0.18908835    -0.05120
C1074       C  0.96545345  0.91919490  0.20486729     0.00810
C1075       C  0.98490957  0.91044640  0.22034264    -0.07760
C1076       C  0.01981625  0.91330324  0.21913912    -0.05140
C1077       C  0.03548568  0.92372965  0.20296095     0.00800
C1078       C  0.01610905  0.93382519  0.18784651    -0.07670
C1079       C  0.03221530  0.94707601  0.17050105     0.62710
H1080       H  0.96611304  0.93814722  0.17743445     0.13400
H1081       H  0.03528128  0.90563315  0.23048350     0.13410
C1082       C  0.96922446  0.89612201  0.23756358     0.62940
F1083       F  0.00891586  0.95910374  0.15830394    -0.22230
F1084       F  0.04941962  0.92219036  0.16183352    -0.19560
F1085       F  0.05402457  0.97270218  0.17488251    -0.19230
F1086       F  0.95045810  0.86823238  0.23317835    -0.19280
F1087       F  0.94908175  0.91941826  0.24562257    -0.19610
F1088       F  0.99289540  0.88699797  0.25033312    -0.22280
C1089       C  0.82667551  0.77235490  0.20826979    -0.05120
C1090       C  0.85678202  0.78845194  0.21272433     0.00810
C1091       C  0.88436406  0.76948702  0.21842978    -0.07760
C1092       C  0.88158568  0.73468103  0.21764979    -0.05140
C1093       C  0.85237853  0.71887435  0.21142100     0.00800
C1094       C  0.82385159  0.73776448  0.20766194    -0.07670
C1095       C  0.79053294  0.72160569  0.20302603     0.62710
H1096       H  0.80550542  0.78720903  0.20452791     0.13400
H1097       H  0.90279480  0.71956110  0.22093447     0.13410
C1098       C  0.91691159  0.78563191  0.22446513     0.62940
F1099       F  0.76497159  0.74418411  0.20357662    -0.22230
F1100       F  0.78332477  0.69683734  0.21555412    -0.19560
F1101       F  0.79141029  0.70822710  0.18560310    -0.19230
F1102       F  0.91162858  0.80468270  0.23991462    -0.19280
F1103       F  0.92942023  0.80544374  0.21057449    -0.19610
F1104       F  0.94069057  0.76241330  0.22876297    -0.22280
C1105       C  0.74620712  0.92543329  0.22825422    -0.05120
C1106       C  0.77836914  0.92465356  0.23576786     0.00810
C1107       C  0.78237194  0.92560785  0.25506343    -0.07760
C1108       C  0.75379927  0.92664434  0.26611569    -0.05140
C1109       C  0.72153375  0.92534788  0.25865594     0.00800
C1110       C  0.71756386  0.92523999  0.23931068    -0.07670
C1111       C  0.68357137  0.92271595  0.23023063     0.62710
H1112       H  0.74370081  0.92451202  0.21349671     0.13400
H1113       H  0.75646643  0.92676304  0.28086942     0.13410
C1114       C  0.81633560  0.92308800  0.26408549     0.62940
F1115       F  0.68580478  0.92130113  0.21131809    -0.22230
F1116       F  0.66507001  0.95015026  0.23469688    -0.19560
F1117       F  0.66717889  0.89425069  0.23602960    -0.19230
F1118       F  0.83572309  0.95035257  0.25946692    -0.19280
F1119       F  0.83175914  0.89449242  0.25833296    -0.19610
F1120       F  0.81416728  0.92195001  0.28300639    -0.22280
C1121       C  0.62893396  0.43268024  0.61162390    -0.05120
C1122       C  0.65979136  0.42769655  0.60299809     0.00810
C1123       C  0.68906587  0.42727676  0.61392355    -0.07760
C1124       C  0.68582622  0.42919053  0.63316543    -0.05140
C1125       C  0.65464655  0.43218880  0.64158218     0.00800
C1126       C  0.62574517  0.43445516  0.63069069    -0.07670
C1127       C  0.59131428  0.43615676  0.63920643     0.62710
H1128       H  0.60661572  0.43347045  0.60334686     0.13400
H1129       H  0.70753481  0.42708072  0.64187051     0.13410
C1130       C  0.72341024  0.42468082  0.60554652     0.62940
F1131       F  0.56637874  0.43667812  0.62610514    -0.22230
F1132       F  0.58890154  0.46460991  0.64963930    -0.19560
F1133       F  0.58580044  0.40875211  0.65021574    -0.19230
F1134       F  0.72761233  0.44883238  0.59228200    -0.19280
F1135       F  0.72720870  0.39372057  0.59778035    -0.19610
F1136       F  0.74826564  0.42915102  0.61851058    -0.22280
C1137       C  0.68471889  0.59346403  0.38178357    -0.05120
C1138       C  0.65381919  0.59376050  0.39086418     0.00810
C1139       C  0.62411570  0.58943110  0.38027119    -0.07760
C1140       C  0.62669658  0.58707689  0.36112784    -0.05140
C1141       C  0.65723969  0.58949203  0.35216433     0.00800
C1142       C  0.68693899  0.59129036  0.36252850    -0.07670
C1143       C  0.72064630  0.58980875  0.35328665     0.62710
H1144       H  0.70726173  0.59570094  0.38984708     0.13400
H1145       H  0.60443001  0.58545222  0.35276766     0.13410
C1146       C  0.58945520  0.58871452  0.38862887     0.62940
F1147       F  0.74629704  0.58824548  0.36592713    -0.22230
F1148       F  0.72587202  0.61756565  0.34255976    -0.19560
F1149       F  0.72188725  0.56182783  0.34235995    -0.19230
F1150       F  0.58347218  0.61849597  0.39733147    -0.19280
F1151       F  0.58665055  0.56284146  0.40096206    -0.19610
F1152       F  0.56480967  0.58409536  0.37555250    -0.22280
C1153       C  0.70649415  0.52725929  0.49469498    -0.05120
C1154       C  0.68026007  0.53118389  0.48217845     0.00810
C1155       C  0.65393986  0.50751337  0.48160346    -0.07760
C1156       C  0.65470652  0.48051195  0.49351305    -0.05140
C1157       C  0.68000849  0.47708416  0.50646102     0.00800
C1158       C  0.70668742  0.50028222  0.50705214    -0.07670
C1159       C  0.73413836  0.49706166  0.52112637     0.62710
H1160       H  0.72601302  0.54602474  0.49517200     0.13400
H1161       H  0.63427105  0.46267744  0.49358155     0.13410
C1162       C  0.62348398  0.51254739  0.46967566     0.62940
F1163       F  0.75807564  0.52181112  0.51927641    -0.22230
F1164       F  0.74936358  0.46680961  0.51902435    -0.19560
F1165       F  0.72093088  0.49900774  0.53856449    -0.19230
F1166       F  0.63206687  0.51089587  0.45138520    -0.19280
F1167       F  0.61058086  0.54328825  0.47341173    -0.19610
F1168       F  0.59881777  0.48900514  0.47293168    -0.22280
C1169       C  0.36874279  0.39949885  0.61236902    -0.05120
C1170       C  0.34343399  0.41519112  0.60253043     0.00810
C1171       C  0.31743478  0.43090081  0.61218876    -0.07760
C1172       C  0.31731376  0.42927505  0.63156216    -0.05140
C1173       C  0.34240664  0.41273858  0.64115406     0.00800
C1174       C  0.36869894  0.39795692  0.63150086    -0.07670
C1175       C  0.39662272  0.38038493  0.64146924     0.62710
H1176       H  0.38851567  0.38771303  0.60485424     0.13400
H1177       H  0.29754552  0.44049551  0.63932838     0.13410
C1178       C  0.29072032  0.44996744  0.60220802     0.62940
F1179       F  0.42029282  0.36851072  0.62949823    -0.22230
F1180       F  0.38382630  0.35378959  0.65122178    -0.19560
F1181       F  0.41230138  0.40215960  0.65343881    -0.19230
F1182       F  0.27128438  0.42844074  0.59188393    -0.19280
F1183       F  0.30533726  0.47330952  0.59080494    -0.19610
F1184       F  0.27014789  0.46639016  0.61426303    -0.22280
C1185       C  0.48481202  0.40068639  0.55347288    -0.05120
C1186       C  0.46796379  0.40209874  0.53664069     0.00810
C1187       C  0.48672925  0.40254987  0.52015114    -0.07760
C1188       C  0.52186540  0.40278876  0.52135255    -0.05140
C1189       C  0.53841706  0.40280775  0.53834945     0.00800
C1190       C  0.51950763  0.40091399  0.55472395    -0.07670
C1191       C  0.53544087  0.39871281  0.57364786     0.62710
H1192       H  0.47039179  0.39962821  0.56595592     0.13400
H1193       H  0.53672792  0.40360389  0.50902641     0.13410
C1194       C  0.47012682  0.40344045  0.50145851     0.62940
F1195       F  0.51240930  0.39097462  0.58710259    -0.22230
F1196       F  0.55001898  0.42883924  0.57822701    -0.19560
F1197       F  0.55915472  0.37424053  0.57382974    -0.19230
F1198       F  0.44945736  0.43045665  0.50035486    -0.19280
F1199       F  0.45175357  0.37463031  0.49872591    -0.19610
F1200       F  0.49311595  0.40600668  0.48742422    -0.22280
C1201       C  0.34923291  0.57567817  0.36165977    -0.05120
C1202       C  0.33667200  0.60391301  0.35293441     0.00810
C1203       C  0.32034103  0.62814824  0.36371282    -0.07760
C1204       C  0.32160303  0.62571016  0.38285212    -0.05140
C1205       C  0.33808960  0.59990985  0.39152815     0.00800
C1206       C  0.35015862  0.57323695  0.38094882    -0.07670
C1207       C  0.36355131  0.54235771  0.38999942     0.62710
H1208       H  0.36034058  0.55657273  0.35336490     0.13400
H1209       H  0.31210424  0.64566934  0.39119059     0.13410
C1210       C  0.30487558  0.65879980  0.35560972     0.62940
F1211       F  0.36871530  0.51734399  0.37737567    -0.22230
F1212       F  0.34092932  0.53074790  0.40280813    -0.19560
F1213       F  0.39345656  0.54940798  0.39860305    -0.19230
F1214       F  0.28811839  0.65140384  0.33950378    -0.19280
F1215       F  0.32986404  0.68179403  0.35241127    -0.19610
F1216       F  0.28224146  0.67272868  0.36750996    -0.22280
C1217       C  0.52851102  0.64145455  0.46410042    -0.05120
C1218       C  0.54205448  0.60980954  0.46238666     0.00810
C1219       C  0.52030474  0.58186185  0.46106395    -0.07760
C1220       C  0.48597843  0.58716050  0.45920286    -0.05140
C1221       C  0.47265297  0.61900223  0.45973807     0.00800
C1222       C  0.49409651  0.64655656  0.46295072    -0.07670
C1223       C  0.48100998  0.68132011  0.46408679     0.62710
H1224       H  0.54534613  0.66253374  0.46542710     0.13400
H1225       H  0.46902952  0.56628312  0.45739424     0.13410
C1226       C  0.53256249  0.54671676  0.46310125     0.62940
F1227       F  0.50619946  0.70487280  0.46582012    -0.22230
F1228       F  0.46059311  0.68383888  0.47919103    -0.19560
F1229       F  0.46352849  0.68807778  0.44828344    -0.19230
F1230       F  0.54832483  0.54386072  0.47984927    -0.19280
F1231       F  0.55416798  0.53885855  0.44914702    -0.19610
F1232       F  0.50669957  0.52370662  0.46271784    -0.22280
C1233       C  0.31344480  0.52952011  0.49131412    -0.05120
C1234       C  0.34398360  0.53876962  0.48338958     0.00810
C1235       C  0.37290274  0.52039964  0.48732599    -0.07760
C1236       C  0.37023721  0.49313142  0.49909230    -0.05140
C1237       C  0.33989271  0.48374964  0.50695481     0.00800
C1238       C  0.31092161  0.50186272  0.50310259    -0.07670
C1239       C  0.27793623  0.49200473  0.51158603     0.62710
H1240       H  0.29171395  0.54397469  0.48814759     0.13400
H1241       H  0.39208487  0.47895172  0.50245890     0.13410
C1242       C  0.40676099  0.53021800  0.47963983     0.62940
F1243       F  0.25268192  0.51278477  0.50615847    -0.22230
F1244       F  0.28045894  0.49332994  0.53047473    -0.19560
F1245       F  0.26948509  0.46004349  0.50633359    -0.19230
F1246       F  0.41403745  0.56283424  0.48409777    -0.19280
F1247       F  0.40667887  0.52665133  0.46080467    -0.19610
F1248       F  0.43191603  0.51081887  0.48661535    -0.22280
C1249       C  0.31052438  0.90980307  0.38189753    -0.05120
C1250       C  0.33532498  0.92743898  0.39155302     0.00810
C1251       C  0.35722004  0.94883283  0.38165619    -0.07760
C1252       C  0.35650055  0.94802454  0.36237529    -0.05140
C1253       C  0.33428008  0.92731906  0.35276614     0.00800
C1254       C  0.30926366  0.90973710  0.36261642    -0.07670
C1255       C  0.28111897  0.89119463  0.35295592     0.62710
H1256       H  0.29297887  0.89462592  0.38951347     0.13400
H1257       H  0.37479041  0.96218479  0.35468246     0.13410
C1258       C  0.38165474  0.97222729  0.39115395     0.62940
F1259       F  0.25567962  0.88299894  0.36494184    -0.22230
F1260       F  0.29262436  0.86217994  0.34535475    -0.19560
F1261       F  0.26791034  0.91087716  0.33932096    -0.19230
F1262       F  0.40810397  0.95461261  0.39805683    -0.19280
F1263       F  0.36596312  0.98875209  0.40524321    -0.19610
F1264       F  0.39419333  0.99588412  0.37920455    -0.22280
C1265       C  0.31134417  0.74246646  0.45226294    -0.05120
C1266       C  0.34317422  0.72836250  0.45194270     0.00810
C1267       C  0.37146258  0.74956275  0.45342478    -0.07760
C1268       C  0.36728447  0.78382049  0.45382308    -0.05140
C1269       C  0.33592057  0.79826020  0.45287840     0.00800
C1270       C  0.30719078  0.77738296  0.45269264    -0.07670
C1271       C  0.27266674  0.79183585  0.45238617     0.62710
H1272       H  0.28985587  0.72602050  0.45160696     0.13400
H1273       H  0.38909362  0.79989094  0.45447496     0.13410
C1274       C  0.40633547  0.73623055  0.45452302     0.62940
F1275       F  0.24823633  0.76741688  0.45119626    -0.22230
F1276       F  0.26943609  0.81258798  0.43743978    -0.19560
F1277       F  0.26749772  0.80964083  0.46829481    -0.19230
F1278       F  0.41552234  0.72487289  0.43742993    -0.19280
F1279       F  0.40712366  0.71083010  0.46716692    -0.19610
F1280       F  0.42935457  0.76011579  0.45999467    -0.22280
C1281       C  0.33000777  0.07251409  0.61070181    -0.05120
C1282       C  0.32488257  0.10310889  0.60205916     0.00810
C1283       C  0.31980309  0.13170650  0.61278981    -0.07760
C1284       C  0.32156534  0.12896605  0.63189678    -0.05140
C1285       C  0.32900616  0.09892885  0.64072802     0.00800
C1286       C  0.33165331  0.06969466  0.62997432    -0.07670
C1287       C  0.33630279  0.03580486  0.63853201     0.62710
H1288       H  0.33386212  0.05098037  0.60215349     0.13400
H1289       H  0.31866818  0.15110658  0.64006074     0.13410
C1290       C  0.31497211  0.16556049  0.60411809     0.62940
F1291       F  0.33387077  0.01068846  0.62564131    -0.22230
F1292       F  0.31194734  0.03011564  0.65155374    -0.19560
F1293       F  0.36734126  0.03412951  0.64662878    -0.19230
F1294       F  0.28609440  0.16532392  0.59381131    -0.19280
F1295       F  0.34175414  0.17328602  0.59297979    -0.19610
F1296       F  0.31246361  0.19041396  0.61710114    -0.22280
C1297       C  0.30980865  0.24404482  0.54271385    -0.05120
C1298       C  0.33896236  0.22648223  0.53916184     0.00810
C1299       C  0.36822827  0.24398666  0.53413407    -0.07760
C1300       C  0.36810748  0.27863424  0.53412409    -0.05140
C1301       C  0.33968092  0.29664430  0.53866107     0.00800
C1302       C  0.30955090  0.27912691  0.54248490    -0.07670
C1303       C  0.27766289  0.29710471  0.54677401     0.62710
H1304       H  0.28753407  0.23005745  0.54620741     0.13400
H1305       H  0.39073132  0.29205158  0.53063717     0.13410
C1306       C  0.39904575  0.22602897  0.52784040     0.62940
F1307       F  0.25177165  0.27530895  0.55070485    -0.22230
F1308       F  0.26836646  0.31585768  0.53181784    -0.19560
F1309       F  0.28241129  0.31753555  0.56180804    -0.19230
F1310       F  0.39025536  0.20499589  0.51362168    -0.19280
F1311       F  0.41246594  0.20800399  0.54207515    -0.19610
F1312       F  0.42350072  0.24763704  0.52156118    -0.22280
C1313       C  0.34744624  0.02334154  0.50600603    -0.05120
C1314       C  0.31766501  0.03891117  0.51000821     0.00810
C1315       C  0.28758321  0.02711303  0.50209635    -0.07760
C1316       C  0.28857561  0.99898603  0.49043355    -0.05140
C1317       C  0.31882407  0.98326569  0.48671955     0.00800
C1318       C  0.34865871  0.99625292  0.49424101    -0.07670
C1319       C  0.38206390  0.98236019  0.48916667     0.62710
H1320       H  0.37021558  0.03315577  0.51204117     0.13400
H1321       H  0.26603379  0.98922102  0.48418063     0.13410
C1322       C  0.25505268  0.04377454  0.50631855     0.62940
F1323       F  0.40806162  0.00051974  0.49683143    -0.22230
F1324       F  0.38553265  0.98330009  0.47034894    -0.19560
F1325       F  0.38404936  0.95002412  0.49523757    -0.19230
F1326       F  0.25623537  0.07615888  0.50018039    -0.19280
F1327       F  0.24976118  0.04364303  0.52503623    -0.19610
F1328       F  0.22842939  0.02774837  0.49793196    -0.22280
C1329       C  0.66231324  0.94287067  0.38301959    -0.05120
C1330       C  0.65699824  0.91292930  0.39242072     0.00810
C1331       C  0.65305406  0.88309629  0.38248172    -0.07760
C1332       C  0.65405844  0.88416059  0.36333887    -0.05140
C1333       C  0.65811027  0.91403692  0.35367679     0.00800
C1334       C  0.66322343  0.94395032  0.36363237    -0.07670
C1335       C  0.67014039  0.97654906  0.35397075     0.62710
H1336       H  0.66497188  0.96543129  0.39096187     0.13400
H1337       H  0.65016696  0.86141046  0.35570758     0.13410
C1338       C  0.64614224  0.85033745  0.39211178     0.62940
F1339       F  0.67907426  0.00137071  0.36620704    -0.22230
F1340       F  0.64205623  0.98650805  0.34465515    -0.19560
F1341       F  0.69601388  0.97283997  0.34171816    -0.19230
F1342       F  0.61694444  0.85236709  0.40198963    -0.19280
F1343       F  0.67209075  0.84327012  0.40386089    -0.19610
F1344       F  0.64272844  0.82425398  0.37989050    -0.22280
C1345       C  0.68689603  0.77661833  0.45810592    -0.05120
C1346       C  0.65632459  0.79120441  0.45374770     0.00810
C1347       C  0.62823565  0.77047038  0.45042557    -0.07760
C1348       C  0.63194646  0.73620570  0.45034973    -0.05140
C1349       C  0.66256189  0.72123615  0.45369748     0.00800
C1350       C  0.69053745  0.74164409  0.45819330    -0.07670
C1351       C  0.72395151  0.72678566  0.46263764     0.62710
H1352       H  0.70798172  0.79278694  0.46101924     0.13400
H1353       H  0.61036613  0.72065456  0.44747281     0.13410
C1354       C  0.59390218  0.78436393  0.44734821     0.62940
F1355       F  0.74818496  0.75096231  0.46547890    -0.22230
F1356       F  0.73403384  0.70691788  0.44830034    -0.19560
F1357       F  0.72142230  0.70801429  0.47842083    -0.19230
F1358       F  0.59178673  0.79716834  0.42983045    -0.19280
F1359       F  0.58835076  0.80893312  0.46010651    -0.19610
F1360       F  0.56906908  0.76051224  0.44930532    -0.22280
C1361       C  0.46859253  0.87358976  0.45486173    -0.05120
C1362       C  0.45640111  0.90410972  0.46069698     0.00810
C1363       C  0.47910599  0.92889271  0.46691610    -0.07760
C1364       C  0.51341568  0.92290008  0.46592554    -0.05140
C1365       C  0.52556857  0.89291416  0.45926455     0.00800
C1366       C  0.50281707  0.86735400  0.45419144    -0.07670
C1367       C  0.51423146  0.83293074  0.44945582     0.62710
H1368       H  0.45084733  0.85455328  0.45066595     0.13400
H1369       H  0.53119901  0.94192877  0.47005932     0.13410
C1370       C  0.46736416  0.96049149  0.47559812     0.62940
F1371       F  0.48816787  0.81235613  0.44404025    -0.22230
F1372       F  0.52838772  0.81930847  0.46489139    -0.19560
F1373       F  0.53695116  0.83416861  0.43533202    -0.19230
F1374       F  0.44896889  0.95230049  0.49089132    -0.19280
F1375       F  0.44836000  0.97793752  0.46327105    -0.19610
F1376       F  0.49348897  0.98086313  0.48116910    -0.22280
C1377       C  0.67692205  0.12328439  0.63299986    -0.05120
C1378       C  0.65657451  0.10025215  0.64234954     0.00810
C1379       C  0.63986803  0.07508712  0.63213700    -0.07760
C1380       C  0.64143691  0.07621889  0.61285538    -0.05140
C1381       C  0.65925948  0.10118109  0.60350039     0.00800
C1382       C  0.67869366  0.12425379  0.61373909    -0.07670
C1383       C  0.69972408  0.15099950  0.60454412     0.62710
H1384       H  0.69042167  0.14172049  0.64096959     0.13400
H1385       H  0.62736554  0.05829046  0.60481977     0.13410
C1386       C  0.61918477  0.04807586  0.64130522     0.62940
F1387       F  0.71609062  0.17105095  0.61716602    -0.22230
F1388       F  0.67977040  0.17097530  0.59391092    -0.19560
F1389       F  0.72353021  0.13647046  0.59365261    -0.19230
F1390       F  0.59342018  0.06202799  0.65101165    -0.19280
F1391       F  0.63903777  0.03012264  0.65305546    -0.19610
F1392       F  0.60543775  0.02614315  0.62870562    -0.22280
C1393       C  0.62131376  0.24327129  0.54106069    -0.05120
C1394       C  0.65080302  0.22504093  0.54021930     0.00810
C1395       C  0.68168471  0.24253908  0.53874949    -0.07760
C1396       C  0.68167952  0.27762709  0.53908081    -0.05140
C1397       C  0.65212703  0.29537056  0.54100989     0.00800
C1398       C  0.62132762  0.27797315  0.54148194    -0.07670
C1399       C  0.58832664  0.29590102  0.54210678     0.62710
H1400       H  0.59775266  0.23000748  0.54170977     0.13400
H1401       H  0.70487365  0.29153647  0.53837743     0.13410
C1402       C  0.71447084  0.22462674  0.53725504     0.62940
F1403       F  0.56150841  0.27444417  0.53969104    -0.22230
F1404       F  0.58721056  0.31927623  0.52829652    -0.19560
F1405       F  0.58464997  0.31130293  0.55887966    -0.19230
F1406       F  0.71471292  0.20578689  0.52141967    -0.19280
F1407       F  0.71872684  0.20434111  0.55231699    -0.19610
F1408       F  0.74129679  0.24646506  0.53655693    -0.22280
C1409       C  0.51100819  0.12498926  0.52316792    -0.05120
C1410       C  0.52655256  0.10844829  0.53772961     0.00810
C1411       C  0.50680685  0.08898851  0.54979516    -0.07760
C1412       C  0.47212255  0.09073990  0.54845223    -0.05140
C1413       C  0.45629135  0.10996379  0.53508189     0.00800
C1414       C  0.47605623  0.12552703  0.52134654    -0.07670
C1415       C  0.46083781  0.14334935  0.50518263     0.62710
H1416       H  0.52646198  0.13846372  0.51352644     0.13400
H1417       H  0.45696290  0.07742772  0.55832305     0.13410
C1418       C  0.52182823  0.06611425  0.56402962     0.62940
F1419       F  0.48473817  0.15568178  0.49327969    -0.22230
F1420       F  0.44258015  0.16963240  0.51139986    -0.19560
F1421       F  0.44049155  0.12174798  0.49542291    -0.19230
F1422       F  0.53463503  0.08452123  0.57846300    -0.19280
F1423       F  0.54675569  0.04760598  0.55618019    -0.19610
F1424       F  0.49840996  0.04410962  0.57102945    -0.22280
C1425       C  0.68030670  0.01433965  0.50949879    -0.05120
C1426       C  0.65568137  0.03837428  0.50755577     0.00810
C1427       C  0.63101866  0.03440637  0.49384082    -0.07760
C1428       C  0.63239254  0.00688631  0.48215064    -0.05140
C1429       C  0.65656890  0.98232891  0.48410700     0.00800
C1430       C  0.68124288  0.98615880  0.49797236    -0.07670
C1431       C  0.70848247  0.96100603  0.50060533     0.62710
H1432       H  0.69843994  0.01755516  0.52036818     0.13400
H1433       H  0.61332278  0.00360874  0.47178885     0.13410
C1434       C  0.60183715  0.05782272  0.49240168     0.62940
F1435       F  0.73216037  0.97182945  0.51313757    -0.22230
F1436       F  0.72436678  0.95547662  0.48412086    -0.19560
F1437       F  0.69494929  0.93157141  0.50702017    -0.19230
F1438       F  0.61308381  0.08948668  0.48837460    -0.19280
F1439       F  0.58483604  0.05810283  0.50884325    -0.19610
F1440       F  0.57957186  0.04830705  0.47882259    -0.22280
loop_ 
_geom_bond_atom_site_label_1 
_geom_bond_atom_site_label_2 
_geom_bond_distance 
_geom_bond_site_symmetry_2 
_ccdc_geom_bond_type 
O1            C4   1.264       .  A
O1           Cd6   2.441       .  S
C2           O11   1.266       .  A
C2            O7   1.262       .  A
C2         C1410   1.486       .  S
O3            C9   1.268       .  A
O3           Cd6   2.527       .  S
C4           O12   1.268       .  A
C4         C1381   1.489       .  S
C5           O10   1.265       .  A
C5            O8   1.263       .  A
C5         C1426   1.479       .  S
Cd6          O13   2.421       .  S
Cd6          O12   2.499       .  S
Cd6          O11   2.495       .  S
Cd6           O7   2.424       .  S
Cd6          O10   2.475       .  S
Cd6           O8   2.481       .  S
C9           O13   1.263       .  A
C9         C1394   1.497       .  S
O14          C17   1.264       .  A
O14         Cd19   2.451       .  S
C15          O24   1.264       .  A
C15          O20   1.261       .  A
C15        C1365   1.480       .  S
O16          C22   1.268       .  A
O16         Cd19   2.565       .  S
C17          O25   1.268       .  A
C17        C1330   1.474       .  S
C18          O23   1.267       .  A
C18          O21   1.264       .  A
C18        C1429   1.493       .  S
Cd19         O26   2.405       .  S
Cd19         O25   2.484       .  S
Cd19         O24   2.509       .  S
Cd19         O20   2.481       .  S
Cd19         O23   2.515       .  S
Cd19         O21   2.434       .  S
C22          O26   1.258       .  A
C22        C1346   1.488       .  S
O27          C30   1.262       .  A
O27         Cd32   2.427       .  S
C28          O37   1.268       .  A
C28          O33   1.262       .  A
C28        C1282   1.476       .  S
O29          C35   1.268       .  A
O29         Cd32   2.522       .  S
C30          O38   1.265       .  A
C30        C1413   1.493       .  S
C31          O36   1.266       .  A
C31          O34   1.261       .  A
C31        C1314   1.471       .  S
Cd32         O39   2.425       .  S
Cd32         O38   2.540       .  S
Cd32         O37   2.475       .  S
Cd32         O33   2.443       .  S
Cd32         O36   2.515       .  S
Cd32         O34   2.411       .  S
C35          O39   1.262       .  A
C35        C1298   1.480       .  S
O40          C43   1.262       .  A
O40         Cd45   2.431       .  S
C41          O50   1.264       .  A
C41          O46   1.264       .  A
C41        C1362   1.483       .  S
O42          C48   1.264       .  A
O42         Cd45   2.478       .  S
C43          O51   1.270       .  A
C43        C1250   1.491       .  S
C44          O49   1.269       .  A
C44          O47   1.262       .  A
C44        C1269   1.491       .  S
Cd45         O52   2.489       .  S
Cd45         O51   2.499       .  S
Cd45         O50   2.485       .  S
Cd45         O46   2.514       .  S
Cd45         O49   2.554       .  S
Cd45         O47   2.401       .  S
C48          O52   1.262       .  A
C48        C1317   1.476       .  S
O53          C56   1.263       .  A
O53         Cd58   2.441       .  S
C54          O63   1.264       .  A
C54          O59   1.262       .  A
C54        C1221   1.483       .  S
O55          C61   1.269       .  A
O55         Cd58   2.550       .  S
C56          O64   1.269       .  A
C56        C1205   1.477       .  S
C57          O62   1.266       .  A
C57          O60   1.259       .  A
C57        C1234   1.474       .  S
Cd58         O65   2.433       .  S
Cd58         O64   2.482       .  S
Cd58         O63   2.516       .  S
Cd58         O59   2.463       .  S
Cd58         O62   2.508       .  S
Cd58         O60   2.434       .  S
C61          O65   1.264       .  A
C61        C1266   1.494       .  S
O66          C69   1.262       .  A
O66         Cd71   2.407       .  S
C67          O76   1.266       .  A
C67          O72   1.265       .  A
C67        C1186   1.491       .  S
O68          C74   1.268       .  A
O68         Cd71   2.528       .  S
C69          O77   1.268       .  A
C69        C1170   1.483       .  S
C70          O75   1.265       .  A
C70          O73   1.261       .  A
C70        C1237   1.469       .  S
Cd71         O78   2.409       .  S
Cd71         O77   2.522       .  S
Cd71         O76   2.516       .  S
Cd71         O72   2.409       .  S
Cd71         O75   2.496       .  S
Cd71         O73   2.438       .  S
C74          O78   1.262       .  A
C74        C1301   1.491       .  S
O79          C82   1.261       .  A
O79         Cd84   2.477       .  S
C80          O89   1.272       .  A
C80          O85   1.260       .  A
C80        C1138   1.497       .  S
O81          C87   1.268       .  A
O81         Cd84   2.554       .  S
C82          O90   1.265       .  A
C82        C1218   1.484       .  S
C83          O88   1.264       .  A
C83          O86   1.262       .  A
C83        C1154   1.474       .  S
Cd84         O91   2.393       .  S
Cd84         O90   2.496       .  S
Cd84         O89   2.515       .  S
Cd84         O85   2.403       .  S
Cd84         O88   2.486       .  S
Cd84         O86   2.459       .  S
C87          O91   1.262       .  A
C87        C1349   1.492       .  S
O92          C95   1.259       .  A
O92         Cd97   2.384       .  S
C93         O102   1.267       .  A
C93          O98   1.258       .  A
C93        C1189   1.484       .  S
O94         C100   1.266       .  A
O94         Cd97   2.527       .  S
C95         O103   1.269       .  A
C95        C1122   1.493       .  S
C96         O101   1.268       .  A
C96          O99   1.261       .  A
C96        C1397   1.482       .  S
Cd97        O104   2.404       .  S
Cd97        O103   2.531       .  S
Cd97        O102   2.531       .  S
Cd97         O98   2.402       .  S
Cd97        O101   2.522       .  S
Cd97         O99   2.433       .  S
C100        O104   1.259       .  A
C100       C1157   1.469       .  S
O105        C108   1.262       .  A
O105       Cd110   2.415       .  S
C106        O115   1.263       .  A
C106        O111   1.261       .  A
C106       C1090   1.478       .  S
O107        C113   1.266       .  A
O107       Cd110   2.496       .  S
C108        O116   1.271       .  A
C108       C1058   1.487       .  S
C109        O114   1.266       .  A
C109        O112   1.261       .  A
C109       C1106   1.484       .  S
Cd110       O117   2.447       .  S
Cd110       O116   2.513       .  S
Cd110       O115   2.495       .  S
Cd110       O111   2.422       .  S
Cd110       O114   2.500       .  S
Cd110       O112   2.440       .  S
C113        O117   1.264       .  A
C113       C1074   1.483       .  S
O118        C121   1.262       .  A
O118       Cd123   2.407       .  S
C119        O128   1.266       .  A
C119        O124   1.260       .  A
C119       C1042   1.477       .  S
O120        C126   1.269       .  A
O120       Cd123   2.526       .  S
C121        O129   1.269       .  A
C121       C1333   1.489       .  S
C122        O127   1.266       .  A
C122        O125   1.262       .  A
C122       C1109   1.489       .  S
Cd123       O130   2.399       .  S
Cd123       O129   2.526       .  S
Cd123       O128   2.512       .  S
Cd123       O124   2.409       .  S
Cd123       O127   2.496       .  S
Cd123       O125   2.438       .  S
C126        O130   1.260       .  A
C126       C1026   1.485       .  S
O131        C134   1.264       .  A
O131       Cd136   2.381       .  S
C132        O141   1.269       .  A
C132        O137   1.259       .  A
C132       C1253   1.485       .  S
O133        C139   1.268       .  A
O133       Cd136   2.517       .  S
C134        O142   1.266       .  A
C134        C994   1.484       .  S
C135        O140   1.267       .  A
C135        O138   1.261       .  A
C135       C1010   1.484       .  S
Cd136       O143   2.404       .  S
Cd136       O142   2.518       .  S
Cd136       O141   2.517       .  S
Cd136       O137   2.430       .  S
Cd136       O140   2.505       .  S
Cd136       O138   2.406       .  S
C139        O143   1.262       .  A
C139       C1029   1.483       .  S
O144        C147   1.261       .  A
O144       Cd149   2.404       .  S
C145        O154   1.263       .  A
C145        O150   1.260       .  A
C145        C981   1.464       .  S
O146        C152   1.264       .  A
O146       Cd149   2.475       .  S
C147        O155   1.269       .  A
C147        C962   1.474       .  S
C148        O153   1.267       .  A
C148        O151   1.262       .  A
C148       C1077   1.475       .  S
Cd149       O156   2.438       .  S
Cd149       O155   2.508       .  S
Cd149       O154   2.491       .  S
Cd149       O150   2.431       .  S
Cd149       O153   2.499       .  S
Cd149       O151   2.435       .  S
C152        O156   1.262       .  A
C152       C1013   1.476       .  S
O157        C160   1.261       .  A
O157       Cd162   2.414       .  S
C158        O167   1.271       .  A
C158        O163   1.261       .  A
C158       C1202   1.490       .  S
O159        C165   1.268       .  A
O159       Cd162   2.492       .  S
C160        O168   1.265       .  A
C160        C997   1.480       .  S
C161        O166   1.270       .  A
C161        O164   1.259       .  A
C161        C930   1.486       .  S
Cd162       O169   2.432       .  S
Cd162       O168   2.516       .  S
Cd162       O167   2.528       .  S
Cd162       O163   2.416       .  S
Cd162       O166   2.535       .  S
Cd162       O164   2.396       .  S
C165        O169   1.259       .  A
C165        C949   1.489       .  S
O170        C173   1.263       .  A
O170       Cd175   2.455       .  S
C171        O180   1.264       .  A
C171        O176   1.264       .  A
C171        C978   1.465       .  S
O172        C178   1.271       .  A
O172       Cd175   2.526       .  S
C173        O181   1.267       .  A
C173        C901   1.474       .  S
C174        O179   1.269       .  A
C174        O177   1.261       .  A
C174        C946   1.487       .  S
Cd175       O182   2.396       .  S
Cd175       O181   2.472       .  S
Cd175       O180   2.473       .  S
Cd175       O176   2.435       .  S
Cd175       O179   2.493       .  S
Cd175       O177   2.425       .  S
C178        O182   1.260       .  A
C178        C917   1.487       .  S
O183        C186   1.262       .  A
O183       Cd188   2.429       .  S
C184        O193   1.265       .  A
C184        O189   1.262       .  A
C184       C1093   1.472       .  S
O185        C191   1.266       .  A
O185       Cd188   2.484       .  S
C186        O194   1.268       .  A
C186        C866   1.479       .  S
C187        O192   1.269       .  A
C187        O190   1.264       .  A
C187        C914   1.488       .  S
Cd188       O195   2.425       .  S
Cd188       O194   2.486       .  S
Cd188       O193   2.481       .  S
Cd188       O189   2.423       .  S
Cd188       O192   2.514       .  S
Cd188       O190   2.404       .  S
C191        O195   1.261       .  A
C191        C885   1.480       .  S
O196        C199   1.265       .  A
O196       Cd201   2.422       .  S
C197        O206   1.267       .  A
C197        O202   1.261       .  A
C197       C1141   1.476       .  S
O198        C204   1.269       .  A
O198       Cd201   2.515       .  S
C199        O207   1.265       .  A
C199       C1045   1.482       .  S
C200        O205   1.266       .  A
C200        O203   1.262       .  A
C200        C882   1.484       .  S
Cd201       O208   2.401       .  S
Cd201       O207   2.498       .  S
Cd201       O206   2.486       .  S
Cd201       O202   2.452       .  S
Cd201       O205   2.499       .  S
Cd201       O203   2.418       .  S
C204        O208   1.264       .  A
C204        C933   1.486       .  S
O209        C212   1.263       .  A
O209       Cd214   2.446       .  S
C210        O219   1.265       .  A
C210        O215   1.264       .  A
C210        C818   1.474       .  S
O211        C217   1.269       .  A
O211       Cd214   2.532       .  S
C212        O220   1.266       .  A
C212       C1173   1.471       .  S
C213        O218   1.268       .  A
C213        O216   1.263       .  A
C213        C850   1.488       .  S
Cd214       O221   2.400       .  S
Cd214       O220   2.483       .  S
Cd214       O219   2.484       .  S
Cd214       O215   2.444       .  S
Cd214       O218   2.478       .  S
Cd214       O216   2.444       .  S
C217        O221   1.262       .  A
C217        C834   1.494       .  S
O222        C225   1.264       .  A
O222       Cd227   2.418       .  S
C223        O232   1.265       .  A
C223        O228   1.262       .  A
C223        C786   1.485       .  S
O224        C230   1.269       .  A
O224       Cd227   2.548       .  S
C225        O233   1.268       .  A
C225        C770   1.487       .  S
C226        O231   1.268       .  A
C226        O229   1.259       .  A
C226        C853   1.496       .  S
Cd227       O234   2.419       .  S
Cd227       O233   2.500       .  S
Cd227       O232   2.504       .  S
Cd227       O228   2.460       .  S
Cd227       O231   2.501       .  S
Cd227       O229   2.430       .  S
C230        O234   1.262       .  A
C230        C805   1.491       .  S
O235        C238   1.261       .  A
O235       Cd240   2.401       .  S
C236        O245   1.266       .  A
C236        O241   1.262       .  A
C236        C738   1.483       .  S
O237        C243   1.267       .  A
O237       Cd240   2.500       .  S
C238        O246   1.268       .  A
C238        C722   1.474       .  S
C239        O244   1.268       .  A
C239        O242   1.260       .  A
C239        C802   1.482       .  S
Cd240       O247   2.394       .  S
Cd240       O246   2.507       .  S
Cd240       O245   2.528       .  S
Cd240       O241   2.423       .  S
Cd240       O244   2.546       .  S
Cd240       O242   2.380       .  S
C243        O247   1.262       .  A
C243        C754   1.468       .  S
O248        C251   1.260       .  A
O248       Cd253   2.407       .  S
C249        O258   1.270       .  A
C249        O254   1.262       .  A
C249       C1125   1.473       .  S
O250        C256   1.270       .  A
O250       Cd253   2.532       .  S
C251        O259   1.265       .  A
C251        C709   1.483       .  S
C252        O257   1.268       .  A
C252        O255   1.259       .  A
C252        C757   1.471       .  S
Cd253       O260   2.391       .  S
Cd253       O259   2.502       .  S
Cd253       O258   2.477       .  S
Cd253       O254   2.425       .  S
Cd253       O257   2.500       .  S
Cd253       O255   2.413       .  S
C256        O260   1.260       .  A
C256        C837   1.484       .  S
O261        C264   1.261       .  A
O261       Cd266   2.419       .  S
C262        O271   1.268       .  A
C262        O267   1.261       .  A
C262       C1285   1.494       .  S
O263        C269   1.268       .  A
O263       Cd266   2.513       .  S
C264        O272   1.266       .  A
C264        C821   1.469       .  S
C265        O270   1.266       .  A
C265        O268   1.262       .  A
C265        C693   1.495       .  S
Cd266       O273   2.425       .  S
Cd266       O272   2.505       .  S
Cd266       O271   2.520       .  S
Cd266       O267   2.399       .  S
Cd266       O270   2.519       .  S
Cd266       O268   2.403       .  S
C269        O273   1.261       .  A
C269        C674   1.472       .  S
O274        C277   1.263       .  A
O274       Cd279   2.422       .  S
C275        O284   1.264       .  A
C275        O280   1.262       .  A
C275        C789   1.477       .  S
O276        C282   1.265       .  A
O276       Cd279   2.472       .  S
C277        O285   1.268       .  A
C277        C642   1.481       .  S
C278        O283   1.270       .  A
C278        O281   1.262       .  A
C278        C658   1.490       .  S
Cd279       O286   2.457       .  S
Cd279       O285   2.489       .  S
Cd279       O284   2.464       .  S
Cd279       O280   2.460       .  S
Cd279       O283   2.528       .  S
Cd279       O281   2.423       .  S
C282        O286   1.261       .  A
C282        C690   1.474       .  S
O287        C290   1.262       .  A
O287       Cd292   2.436       .  S
C288        O297   1.268       .  A
C288        O293   1.261       .  A
C288        C610   1.483       .  S
O289        C295   1.265       .  A
O289       Cd292   2.487       .  S
C290        O298   1.266       .  A
C290        C741   1.483       .  S
C291        O296   1.269       .  A
C291        O294   1.262       .  A
C291        C661   1.498       .  S
Cd292       O299   2.451       .  S
Cd292       O298   2.516       .  S
Cd292       O297   2.522       .  S
Cd292       O293   2.426       .  S
Cd292       O296   2.539       .  S
Cd292       O294   2.408       .  S
C295        O299   1.263       .  A
C295        C626   1.489       .  S
O300        C303   1.264       .  A
O300       Cd305   2.392       .  S
C301        O310   1.267       .  A
C301        O306   1.262       .  A
C301       C1378   1.493       .  S
O302        C308   1.266       .  A
O302       Cd305   2.498       .  S
C303        O311   1.266       .  A
C303        C706   1.486       .  S
C304        O309   1.267       .  A
C304        O307   1.261       .  A
C304        C677   1.476       .  S
Cd305       O312   2.438       .  S
Cd305       O311   2.521       .  S
Cd305       O310   2.510       .  S
Cd305       O306   2.441       .  S
Cd305       O309   2.511       .  S
Cd305       O307   2.435       .  S
C308        O312   1.263       .  A
C308        C629   1.491       .  S
O313        C316   1.264       .  A
O313       Cd318   2.408       .  S
C314        O323   1.268       .  A
C314        O319   1.262       .  A
C314        C645   1.490       .  S
O315        C321   1.267       .  A
O315       Cd318   2.532       .  S
C316        O324   1.265       .  A
C316        C581   1.489       .  S
C317        O322   1.266       .  A
C317        O320   1.260       .  A
C317        C594   1.477       .  S
Cd318       O325   2.390       .  S
Cd318       O324   2.517       .  S
Cd318       O323   2.496       .  S
Cd318       O319   2.418       .  S
Cd318       O322   2.458       .  S
Cd318       O320   2.437       .  S
C321        O325   1.262       .  A
C321        C562   1.482       .  S
O326        C329   1.260       .  A
O326       Cd331   2.402       .  S
C327        O336   1.267       .  A
C327        O332   1.262       .  A
C327        C533   1.467       .  S
O328        C334   1.269       .  A
O328       Cd331   2.493       .  S
C329        O337   1.267       .  A
C329        C965   1.468       .  S
C330        O335   1.268       .  A
C330        O333   1.261       .  A
C330        C546   1.485       .  S
Cd331       O338   2.396       .  S
Cd331       O337   2.511       .  S
Cd331       O336   2.500       .  S
Cd331       O332   2.415       .  S
Cd331       O335   2.544       .  S
Cd331       O333   2.395       .  S
C334        O338   1.258       .  A
C334        C597   1.487       .  S
O339        C342   1.262       .  A
O339       Cd344   2.411       .  S
C340        O349   1.267       .  A
C340        O345   1.262       .  A
C340        C613   1.471       .  S
O341        C347   1.269       .  A
O341       Cd344   2.499       .  S
C342        O350   1.267       .  A
C342        C578   1.483       .  S
C343        O348   1.268       .  A
C343        O346   1.263       .  A
C343        C498   1.496       .  S
Cd344       O351   2.427       .  S
Cd344       O350   2.506       .  S
Cd344       O349   2.493       .  S
Cd344       O345   2.445       .  S
Cd344       O348   2.542       .  S
Cd344       O346   2.417       .  S
C347        O351   1.259       .  A
C347        C514   1.495       .  S
O352        C355   1.265       .  A
O352       Cd357   2.430       .  S
C353        O362   1.268       .  A
C353        O358   1.263       .  A
C353       C1061   1.485       .  S
O354        C360   1.268       .  A
O354       Cd357   2.471       .  S
C355        O363   1.264       .  A
C355        C530   1.477       .  S
C356        O361   1.269       .  A
C356        O359   1.262       .  A
C356        C482   1.496       .  S
Cd357       O364   2.445       .  S
Cd357       O363   2.494       .  S
Cd357       O362   2.485       .  S
Cd357       O358   2.448       .  S
Cd357       O361   2.526       .  S
Cd357       O359   2.406       .  S
C360        O364   1.262       .  A
C360        C517   1.483       .  S
O365        C368   1.263       .  A
O365       Cd370   2.440       .  S
C366        O375   1.269       .  A
C366        O371   1.264       .  A
C366        C898   1.496       .  S
O367        C373   1.266       .  A
O367       Cd370   2.503       .  S
C368        O376   1.264       .  A
C368        C453   1.494       .  S
C369        O374   1.269       .  A
C369        O372   1.260       .  A
C369        C549   1.485       .  S
Cd370       O377   2.454       .  S
Cd370       O376   2.534       .  S
Cd370       O375   2.516       .  S
Cd370       O371   2.405       .  S
Cd370       O374   2.545       .  S
Cd370       O372   2.411       .  S
C373        O377   1.261       .  A
C373        C466   1.476       .  S
O378        C381   1.264       .  A
O378       Cd383   2.455       .  S
C379        O388   1.265       .  A
C379        O384   1.261       .  A
C379        C773   1.480       .  S
O380        C386   1.268       .  A
O380       Cd383   2.522       .  S
C381        O389   1.267       .  A
C381        C434   1.475       .  S
C382        O387   1.268       .  A
C382        O385   1.261       .  A
C382        C565   1.483       .  S
Cd383       O390   2.421       .  S
Cd383       O389   2.490       .  S
Cd383       O388   2.489       .  S
Cd383       O384   2.443       .  S
Cd383       O387   2.537       .  S
Cd383       O385   2.426       .  S
C386        O390   1.261       .  A
C386        C469   1.481       .  S
O391        C394   1.263       .  A
O391       Cd396   2.390       .  S
C392        O401   1.265       .  A
C392        O397   1.258       .  A
C392        C450   1.481       .  S
O393        C399   1.266       .  A
O393       Cd396   2.517       .  S
C394        O402   1.271       .  A
C394        C869   1.491       .  S
C395        O400   1.267       .  A
C395        O398   1.260       .  A
C395        C485   1.482       .  S
Cd396       O403   2.400       .  S
Cd396       O402   2.501       .  S
Cd396       O401   2.517       .  S
Cd396       O397   2.429       .  S
Cd396       O400   2.524       .  S
Cd396       O398   2.415       .  S
C399        O403   1.260       .  A
C399        C418   1.473       .  S
O404        C407   1.264       .  A
O404       Cd409   2.496       .  S
C405        O414   1.268       .  A
C405        O410   1.263       .  A
C405        C725   1.469       .  S
O406        C412   1.270       .  A
O406       Cd409   2.542       .  S
C407        O415   1.263       .  A
C407        C437   1.478       .  S
C408        O413   1.263       .  A
C408        O411   1.262       .  A
C408        C421   1.474       .  S
Cd409       O416   2.429       .  S
Cd409       O415   2.479       .  S
Cd409       O414   2.481       .  S
Cd409       O410   2.434       .  S
Cd409       O413   2.469       .  S
Cd409       O411   2.486       .  S
C412        O416   1.261       .  A
C412        C501   1.493       .  S
C417        C418   1.396       .  A
C417        C422   1.392   1_554  A
C417        H424   1.084       .  S
C418        C419   1.415       .  A
C419        C420   1.418   1_554  A
C419        C426   1.514       .  S
C420        C421   1.407       .  A
C420        H425   1.083       .  S
C421        C422   1.413       .  A
C422        C423   1.516       .  S
C423        F427   1.385   1_556  S
C423        F428   1.382       .  S
C423        F429   1.382   1_556  S
C426        F430   1.382   1_554  S
C426        F431   1.384       .  S
C426        F432   1.384   1_554  S
C433        C434   1.401       .  A
C433        C438   1.409   1_455  A
C433        H440   1.083       .  S
C434        C435   1.411       .  A
C435        C436   1.402   1_455  A
C435        C442   1.509       .  S
C436        C437   1.399       .  A
C436        H441   1.069       .  S
C437        C438   1.415       .  A
C438        C439   1.509       .  S
C439        F443   1.385       .  S
C439        F444   1.378       .  S
C439        F445   1.382       .  S
C442        F446   1.380       .  S
C442        F447   1.382       .  S
C442        F448   1.384   1_455  S
C449        C450   1.402       .  A
C449        C454   1.411   1_655  A
C449        H456   1.082       .  S
C450        C451   1.417       .  A
C451        C452   1.402   1_655  A
C451        C458   1.520       .  S
C452        C453   1.405       .  A
C452        H457   1.083       .  S
C453        C454   1.424       .  A
C454        C455   1.512       .  S
C455        F459   1.385   1_455  S
C455        F460   1.383   1_554  S
C455        F461   1.375       .  S
C458        F462   1.384       .  S
C458        F463   1.382       .  S
C458        F464   1.385       .  S
C465        C466   1.405       .  A
C465        C470   1.416   1_554  A
C465        H472   1.084       .  S
C466        C467   1.416       .  A
C467        C468   1.400   1_554  A
C467        C474   1.522       .  S
C468        C469   1.402       .  A
C468        H473   1.084       .  S
C469        C470   1.418       .  A
C470        C471   1.515       .  S
C471        F475   1.384       .  S
C471        F476   1.383       .  S
C471        F477   1.383       .  S
C474        F478   1.383       .  S
C474        F479   1.383       .  S
C474        F480   1.385       .  S
C481        C482   1.407       .  A
C481        C486   1.400       .  A
C481        H488   1.083       .  S
C482        C483   1.424       .  A
C483        C484   1.416       .  A
C483        C490   1.517       .  S
C484        C485   1.405       .  A
C484        H489   1.083       .  S
C485        C486   1.418       .  A
C486        C487   1.525       .  S
C487        F491   1.385       .  S
C487        F492   1.384       .  S
C487        F493   1.383       .  S
C490        F494   1.383       .  S
C490        F495   1.383       .  S
C490        F496   1.384       .  S
C497        C498   1.402       .  A
C497        C502   1.401       .  A
C497        H504   1.082       .  S
C498        C499   1.423       .  A
C499        C500   1.419       .  A
C499        C506   1.516       .  S
C500        C501   1.407       .  A
C500        H505   1.082       .  S
C501        C502   1.421       .  A
C502        C503   1.518       .  S
C503        F507   1.385       .  S
C503        F508   1.383       .  S
C503        F509   1.381       .  S
C506        F510   1.383       .  S
C506        F511   1.383       .  S
C506        F512   1.385       .  S
C513        C514   1.408   1_554  A
C513        C518   1.409       .  A
C513        H520   1.082       .  S
C514        C515   1.428       .  A
C515        C516   1.406   1_545  A
C515        C522   1.524   1_545  S
C516        C517   1.400   1_556  A
C516        H521   1.083       .  S
C517        C518   1.417   1_565  A
C518        C519   1.519       .  S
C519        F523   1.385       .  S
C519        F524   1.382       .  S
C519        F525   1.384       .  S
C522        F526   1.384   1_565  S
C522        F527   1.383   1_565  S
C522        F528   1.385       .  S
C529        C530   1.402       .  A
C529        C534   1.400   1_655  A
C529        H536   1.084       .  S
C530        C531   1.424       .  A
C531        C532   1.407   1_655  A
C531        C538   1.517       .  S
C532        C533   1.397       .  A
C532        H537   1.082       .  S
C533        C534   1.412       .  A
C534        C535   1.516       .  S
C535        F539   1.384       .  S
C535        F540   1.382       .  S
C535        F541   1.381       .  S
C538        F542   1.387       .  S
C538        F543   1.378   1_554  S
C538        F544   1.387       .  S
C545        C546   1.398       .  A
C545        C550   1.395       .  A
C545        H552   1.080       .  S
C546        C547   1.419       .  A
C547        C548   1.420       .  A
C547        C554   1.514       .  S
C548        C549   1.408       .  A
C548        H553   1.082       .  S
C549        C550   1.417       .  A
C550        C551   1.515       .  S
C551        F555   1.385       .  S
C551        F556   1.383       .  S
C551        F557   1.383       .  S
C554        F558   1.383       .  S
C554        F559   1.383       .  S
C554        F560   1.384       .  S
C561        C562   1.399       .  A
C561        C566   1.395       .  A
C561        H568   1.084       .  S
C562        C563   1.418       .  A
C563        C564   1.418       .  A
C563        C570   1.515       .  S
C564        C565   1.408       .  A
C564        H569   1.083       .  S
C565        C566   1.415       .  A
C566        C567   1.511       .  S
C567        F571   1.385       .  S
C567        F572   1.380       .  S
C567        F573   1.384       .  S
C570        F574   1.383       .  S
C570        F575   1.383       .  S
C570        F576   1.384       .  S
C577        C578   1.407       .  A
C577        C582   1.415   1_655  A
C577        H584   1.082       .  S
C578        C579   1.418       .  A
C579        C580   1.398   1_655  A
C579        C586   1.522       .  S
C580        C581   1.403       .  A
C580        H585   1.083       .  S
C581        C582   1.422       .  A
C582        C583   1.519       .  S
C583        F587   1.385   1_556  S
C583        F588   1.383       .  S
C583        F589   1.383       .  S
C586        F590   1.383       .  S
C586        F591   1.384       .  S
C586        F592   1.385       .  S
C593        C594   1.400   1_554  A
C593        C598   1.402       .  A
C593        H600   1.083       .  S
C594        C595   1.417       .  A
C595        C596   1.407   1_545  A
C595        C602   1.520   1_545  S
C596        C597   1.407   1_556  A
C596        H601   1.083       .  S
C597        C598   1.425   1_565  A
C598        C599   1.523       .  S
C599        F603   1.385       .  S
C599        F604   1.383       .  S
C599        F605   1.384       .  S
C602        F606   1.384   1_565  S
C602        F607   1.382       .  S
C602        F608   1.385       .  S
C609        C610   1.408       .  A
C609        C614   1.415       .  A
C609        H616   1.083       .  S
C610        C611   1.421       .  A
C611        C612   1.400       .  A
C611        C618   1.520       .  S
C612        C613   1.394       .  A
C612        H617   1.084       .  S
C613        C614   1.414       .  A
C614        C615   1.515       .  S
C615        F619   1.384       .  S
C615        F620   1.383       .  S
C615        F621   1.383       .  S
C618        F622   1.382       .  S
C618        F623   1.384       .  S
C618        F624   1.385       .  S
C625        C626   1.406       .  A
C625        C630   1.409       .  A
C625        H632   1.082       .  S
C626        C627   1.420       .  A
C627        C628   1.407       .  A
C627        C634   1.521       .  S
C628        C629   1.407       .  A
C628        H633   1.082       .  S
C629        C630   1.421       .  A
C630        C631   1.520       .  S
C631        F635   1.385       .  S
C631        F636   1.383       .  S
C631        F637   1.384       .  S
C634        F638   1.383       .  S
C634        F639   1.384       .  S
C634        F640   1.385       .  S
C641        C642   1.405       .  A
C641        C646   1.408       .  A
C641        H648   1.083       .  S
C642        C643   1.415       .  A
C643        C644   1.406       .  A
C643        C650   1.520       .  S
C644        C645   1.409       .  A
C644        H649   1.082       .  S
C645        C646   1.420       .  A
C646        C647   1.519       .  S
C647        F651   1.385       .  S
C647        F652   1.383       .  S
C647        F653   1.383       .  S
C650        F654   1.383       .  S
C650        F655   1.384       .  S
C650        F656   1.385       .  S
C657        C658   1.406       .  A
C657        C662   1.417   1_455  A
C657        H664   1.082       .  S
C658        C659   1.419       .  A
C659        C660   1.401   1_455  A
C659        C666   1.521       .  S
C660        C661   1.405       .  A
C660        H665   1.082       .  S
C661        C662   1.423       .  A
C662        C663   1.517       .  S
C663        F667   1.385       .  S
C663        F668   1.383       .  S
C663        F669   1.383       .  S
C666        F670   1.382       .  S
C666        F671   1.382       .  S
C666        F672   1.385       .  S
C673        C674   1.399       .  A
C673        C678   1.403       .  A
C673        H680   1.083       .  S
C674        C675   1.414       .  A
C675        C676   1.411       .  A
C675        C682   1.515       .  S
C676        C677   1.404       .  A
C676        H681   1.083       .  S
C677        C678   1.416       .  A
C678        C679   1.516       .  S
C679        F683   1.385       .  S
C679        F684   1.381       .  S
C679        F685   1.384       .  S
C682        F686   1.384       .  S
C682        F687   1.382       .  S
C682        F688   1.385       .  S
C689        C690   1.403       .  A
C689        C694   1.414       .  A
C689        H696   1.082       .  S
C690        C691   1.413       .  A
C691        C692   1.399       .  A
C691        C698   1.522       .  S
C692        C693   1.408       .  A
C692        H697   1.081       .  S
C693        C694   1.424       .  A
C694        C695   1.518       .  S
C695        F699   1.385       .  S
C695        F700   1.383       .  S
C695        F701   1.383       .  S
C698        F702   1.383       .  S
C698        F703   1.382       .  S
C698        F704   1.385       .  S
C705        C706   1.402       .  A
C705        C710   1.397       .  A
C705        H712   1.083       .  S
C706        C707   1.420       .  A
C707        C708   1.413       .  A
C707        C714   1.517       .  S
C708        C709   1.408       .  A
C708        H713   1.082       .  S
C709        C710   1.419       .  A
C710        C711   1.522       .  S
C711        F715   1.385       .  S
C711        F716   1.383       .  S
C711        F717   1.383       .  S
C714        F718   1.383       .  S
C714        F719   1.379       .  S
C714        F720   1.385       .  S
C721        C722   1.402       .  A
C721        C726   1.397       .  A
C721        H728   1.083       .  S
C722        C723   1.415       .  A
C723        C724   1.414       .  A
C723        C730   1.516       .  S
C724        C725   1.405       .  A
C724        H729   1.082       .  S
C725        C726   1.412       .  A
C726        C727   1.521       .  S
C727        F731   1.385       .  S
C727        F732   1.383       .  S
C727        F733   1.383       .  S
C730        F734   1.384       .  S
C730        F735   1.382       .  S
C730        F736   1.384       .  S
C737        C738   1.401       .  A
C737        C742   1.401       .  A
C737        H744   1.084       .  S
C738        C739   1.419       .  A
C739        C740   1.414       .  A
C739        C746   1.517       .  S
C740        C741   1.407       .  A
C740        H745   1.083       .  S
C741        C742   1.418       .  A
C742        C743   1.519       .  S
C743        F747   1.385       .  S
C743        F748   1.383       .  S
C743        F749   1.380       .  S
C746        F750   1.383       .  S
C746        F751   1.383       .  S
C746        F752   1.385       .  S
C753        C754   1.396       .  A
C753        C758   1.395       .  A
C753        H760   1.083       .  S
C754        C755   1.414       .  A
C755        C756   1.413       .  A
C755        C762   1.514       .  S
C756        C757   1.405       .  A
C756        H761   1.083       .  S
C757        C758   1.418       .  A
C758        C759   1.521       .  S
C759        F763   1.385       .  S
C759        F764   1.381       .  S
C759        F765   1.381       .  S
C762        F766   1.383       .  S
C762        F767   1.383       .  S
C762        F768   1.385       .  S
C769        C770   1.406       .  A
C769        C774   1.405       .  A
C769        H776   1.083       .  S
C770        C771   1.419       .  A
C771        C772   1.410       .  A
C771        C778   1.518       .  S
C772        C773   1.405       .  A
C772        H777   1.083       .  S
C773        C774   1.416       .  A
C774        C775   1.521       .  S
C775        F779   1.385       .  S
C775        F780   1.384       .  S
C775        F781   1.383       .  S
C778        F782   1.383       .  S
C778        F783   1.383       .  S
C778        F784   1.385       .  S
C785        C786   1.405       .  A
C785        C790   1.408       .  A
C785        H792   1.084       .  S
C786        C787   1.418       .  A
C787        C788   1.402       .  A
C787        C794   1.510       .  S
C788        C789   1.399       .  A
C788        H793   1.081       .  S
C789        C790   1.416       .  A
C790        C791   1.517       .  S
C791        F795   1.385       .  S
C791        F796   1.384       .  S
C791        F797   1.381       .  S
C794        F798   1.382       .  S
C794        F799   1.379       .  S
C794        F800   1.385       .  S
C801        C802   1.396       .  A
C801        C806   1.393   1_655  A
C801        H808   1.085       .  S
C802        C803   1.417       .  A
C803        C804   1.420   1_655  A
C803        C810   1.514       .  S
C804        C805   1.410       .  A
C804        H809   1.083       .  S
C805        C806   1.419       .  A
C806        C807   1.512       .  S
C807        F811   1.385   1_455  S
C807        F812   1.383       .  S
C807        F813   1.381       .  S
C810        F814   1.383       .  S
C810        F815   1.383       .  S
C810        F816   1.384       .  S
C817        C818   1.402       .  A
C817        C822   1.403       .  A
C817        H824   1.084       .  S
C818        C819   1.416       .  A
C819        C820   1.410       .  A
C819        C826   1.518       .  S
C820        C821   1.402       .  A
C820        H825   1.084       .  S
C821        C822   1.413       .  A
C822        C823   1.519       .  S
C823        F827   1.384       .  S
C823        F828   1.382       .  S
C823        F829   1.384       .  S
C826        F830   1.384       .  S
C826        F831   1.383       .  S
C826        F832   1.384       .  S
C833        C834   1.405       .  A
C833        C838   1.399       .  A
C833        H840   1.083       .  S
C834        C835   1.423       .  A
C835        C836   1.417       .  A
C835        C842   1.517       .  S
C836        C837   1.406       .  A
C836        H841   1.083       .  S
C837        C838   1.419       .  A
C838        C839   1.525       .  S
C839        F843   1.385       .  S
C839        F844   1.384       .  S
C839        F845   1.383       .  S
C842        F846   1.383       .  S
C842        F847   1.383       .  S
C842        F848   1.384       .  S
C849        C850   1.403       .  A
C849        C854   1.408       .  A
C849        H856   1.083       .  S
C850        C851   1.419       .  A
C851        C852   1.408       .  A
C851        C858   1.520       .  S
C852        C853   1.407       .  A
C852        H857   1.083       .  S
C853        C854   1.427       .  A
C854        C855   1.523       .  S
C855        F859   1.385       .  S
C855        F860   1.384       .  S
C855        F861   1.383       .  S
C858        F862   1.383       .  S
C858        F863   1.384       .  S
C858        F864   1.385       .  S
C865        C866   1.405       .  A
C865        C870   1.410       .  A
C865        H872   1.083       .  S
C866        C867   1.414       .  A
C867        C868   1.404       .  A
C867        C874   1.521       .  S
C868        C869   1.410       .  A
C868        H873   1.082       .  S
C869        C870   1.420       .  A
C870        C871   1.518       .  S
C871        F875   1.385       .  S
C871        F876   1.384       .  S
C871        F877   1.383       .  S
C874        F878   1.383       .  S
C874        F879   1.384       .  S
C874        F880   1.385       .  S
C881        C882   1.406       .  A
C881        C886   1.405       .  A
C881        H888   1.082       .  S
C882        C883   1.419       .  A
C883        C884   1.407       .  A
C883        C890   1.519       .  S
C884        C885   1.405       .  A
C884        H889   1.082       .  S
C885        C886   1.417       .  A
C886        C887   1.521       .  S
C887        F891   1.385       .  S
C887        F892   1.384       .  S
C887        F893   1.382       .  S
C890        F894   1.384       .  S
C890        F895   1.383       .  S
C890        F896   1.385       .  S
C897        C898   1.409       .  A
C897        C902   1.401       .  A
C897        H904   1.082       .  S
C898        C899   1.424       .  A
C899        C900   1.414       .  A
C899        C906   1.518       .  S
C900        C901   1.403       .  A
C900        H905   1.083       .  S
C901        C902   1.412       .  A
C902        C903   1.522       .  S
C903        F907   1.384       .  S
C903        F908   1.383       .  S
C903        F909   1.382       .  S
C906        F910   1.382       .  S
C906        F911   1.384       .  S
C906        F912   1.385       .  S
C913        C914   1.402       .  A
C913        C918   1.399   1_655  A
C913        H920   1.083       .  S
C914        C915   1.419       .  A
C915        C916   1.415   1_655  A
C915        C922   1.517       .  S
C916        C917   1.407       .  A
C916        H921   1.082       .  S
C917        C918   1.421       .  A
C918        C919   1.523       .  S
C919        F923   1.385       .  S
C919        F924   1.383       .  S
C919        F925   1.383       .  S
C922        F926   1.383       .  S
C922        F927   1.383       .  S
C922        F928   1.385       .  S
C929        C930   1.408       .  A
C929        C934   1.416       .  A
C929        H936   1.083       .  S
C930        C931   1.421       .  A
C931        C932   1.399       .  A
C931        C938   1.524       .  S
C932        C933   1.401       .  A
C932        H937   1.083       .  S
C933        C934   1.419       .  A
C934        C935   1.517       .  S
C935        F939   1.384       .  S
C935        F940   1.383       .  S
C935        F941   1.383       .  S
C938        F942   1.383       .  S
C938        F943   1.383       .  S
C938        F944   1.385       .  S
C945        C946   1.404       .  A
C945        C950   1.408       .  A
C945        H952   1.083       .  S
C946        C947   1.421       .  A
C947        C948   1.406       .  A
C947        C954   1.521       .  S
C948        C949   1.405       .  A
C948        H953   1.083       .  S
C949        C950   1.423       .  A
C950        C951   1.521       .  S
C951        F955   1.385       .  S
C951        F956   1.383       .  S
C951        F957   1.384       .  S
C954        F958   1.383       .  S
C954        F959   1.384       .  S
C954        F960   1.385       .  S
C961        C962   1.407       .  A
C961        C966   1.415       .  A
C961        H968   1.083       .  S
C962        C963   1.419       .  A
C963        C964   1.396       .  A
C963        C970   1.523       .  S
C964        C965   1.396       .  A
C964        H969   1.085       .  S
C965        C966   1.414       .  A
C966        C967   1.515       .  S
C967        F971   1.384       .  S
C967        F972   1.383       .  S
C967        F973   1.383       .  S
C970        F974   1.383       .  S
C970        F975   1.382       .  S
C970        F976   1.385       .  S
C977        C978   1.401       .  A
C977        C982   1.404       .  A
C977        H984   1.083       .  S
C978        C979   1.412       .  A
C979        C980   1.405       .  A
C979        C986   1.517       .  S
C980        C981   1.401       .  A
C980        H985   1.084       .  S
C981        C982   1.413       .  A
C982        C983   1.518       .  S
C983        F987   1.385       .  S
C983        F988   1.383       .  S
C983        F989   1.383       .  S
C986        F990   1.383       .  S
C986        F991   1.383       .  S
C986        F992   1.384       .  S
C993        C994   1.400       .  A
C993        C998   1.393       .  A
C993       H1000   1.083       .  S
C994        C995   1.421       .  A
C995        C996   1.417       .  A
C995       C1002   1.517       .  S
C996        C997   1.407       .  A
C996       H1001   1.082       .  S
C997        C998   1.416       .  A
C998        C999   1.517       .  S
C999       F1003   1.385       .  S
C999       F1004   1.384       .  S
C999       F1005   1.380       .  S
C1002      F1006   1.383       .  S
C1002      F1007   1.383       .  S
C1002      F1008   1.385       .  S
C1009      C1010   1.406       .  A
C1009      C1014   1.402       .  A
C1009      H1016   1.082       .  S
C1010      C1011   1.419       .  A
C1011      C1012   1.409       .  A
C1011      C1018   1.518       .  S
C1012      C1013   1.404       .  A
C1012      H1017   1.082       .  S
C1013      C1014   1.416       .  A
C1014      C1015   1.522       .  S
C1015      F1019   1.385       .  S
C1015      F1020   1.384       .  S
C1015      F1021   1.382       .  S
C1018      F1022   1.383       .  S
C1018      F1023   1.383       .  S
C1018      F1024   1.385       .  S
C1025      C1026   1.408       .  A
C1025      C1030   1.415       .  A
C1025      H1032   1.083       .  S
C1026      C1027   1.421       .  A
C1027      C1028   1.400       .  A
C1027      C1034   1.524       .  S
C1028      C1029   1.402       .  A
C1028      H1033   1.084       .  S
C1029      C1030   1.417       .  A
C1030      C1031   1.517       .  S
C1031      F1035   1.384   1_565  S
C1031      F1036   1.383       .  S
C1031      F1037   1.383       .  S
C1034      F1038   1.383       .  S
C1034      F1039   1.384       .  S
C1034      F1040   1.385       .  S
C1041      C1042   1.405       .  A
C1041      C1046   1.413       .  A
C1041      H1048   1.082       .  S
C1042      C1043   1.416       .  A
C1043      C1044   1.399       .  A
C1043      C1050   1.520       .  S
C1044      C1045   1.401       .  A
C1044      H1049   1.084       .  S
C1045      C1046   1.421       .  A
C1046      C1047   1.518       .  S
C1047      F1051   1.385       .  S
C1047      F1052   1.382       .  S
C1047      F1053   1.383       .  S
C1050      F1054   1.382       .  S
C1050      F1055   1.384       .  S
C1050      F1056   1.385       .  S
C1057      C1058   1.405       .  A
C1057      C1062   1.410       .  A
C1057      H1064   1.083       .  S
C1058      C1059   1.422       .  A
C1059      C1060   1.405       .  A
C1059      C1066   1.520       .  S
C1060      C1061   1.402       .  A
C1060      H1065   1.084       .  S
C1061      C1062   1.419       .  A
C1062      C1063   1.518       .  S
C1063      F1067   1.385   1_565  S
C1063      F1068   1.384       .  S
C1063      F1069   1.382       .  S
C1066      F1070   1.384       .  S
C1066      F1071   1.383       .  S
C1066      F1072   1.385       .  S
C1073      C1074   1.405       .  A
C1073      C1078   1.405   1_655  A
C1073      H1080   1.083       .  S
C1074      C1075   1.420       .  A
C1075      C1076   1.410   1_655  A
C1075      C1082   1.519       .  S
C1076      C1077   1.402       .  A
C1076      H1081   1.083       .  S
C1077      C1078   1.413       .  A
C1078      C1079   1.518       .  S
C1079      F1083   1.385       .  S
C1079      F1084   1.382       .  S
C1079      F1085   1.383       .  S
C1082      F1086   1.383       .  S
C1082      F1087   1.382       .  S
C1082      F1088   1.385       .  S
C1089      C1090   1.403       .  A
C1089      C1094   1.400       .  A
C1089      H1096   1.083       .  S
C1090      C1091   1.419       .  A
C1091      C1092   1.409       .  A
C1091      C1098   1.518       .  S
C1092      C1093   1.403       .  A
C1092      H1097   1.083       .  S
C1093      C1094   1.414       .  A
C1094      C1095   1.519       .  S
C1095      F1099   1.385       .  S
C1095      F1100   1.384       .  S
C1095      F1101   1.382       .  S
C1098      F1102   1.383       .  S
C1098      F1103   1.383       .  S
C1098      F1104   1.385       .  S
C1105      C1106   1.405       .  A
C1105      C1110   1.408       .  A
C1105      H1112   1.082       .  S
C1106      C1107   1.418       .  A
C1107      C1108   1.407       .  A
C1107      C1114   1.520       .  S
C1108      C1109   1.407       .  A
C1108      H1113   1.082       .  S
C1109      C1110   1.421       .  A
C1110      C1111   1.520       .  S
C1111      F1115   1.385       .  S
C1111      F1116   1.383       .  S
C1111      F1117   1.384       .  S
C1114      F1118   1.382       .  S
C1114      F1119   1.384       .  S
C1114      F1120   1.385       .  S
C1121      C1122   1.410       .  A
C1121      C1126   1.400       .  A
C1121      H1128   1.082       .  S
C1122      C1123   1.421       .  A
C1123      C1124   1.413       .  A
C1123      C1130   1.517       .  S
C1124      C1125   1.405       .  A
C1124      H1129   1.083       .  S
C1125      C1126   1.411       .  A
C1126      C1127   1.522       .  S
C1127      F1131   1.385       .  S
C1127      F1132   1.382       .  S
C1127      F1133   1.384       .  S
C1130      F1134   1.384       .  S
C1130      F1135   1.383       .  S
C1130      F1136   1.385       .  S
C1137      C1138   1.410       .  A
C1137      C1142   1.411       .  A
C1137      H1144   1.082       .  S
C1138      C1139   1.430       .  A
C1139      C1140   1.405       .  A
C1139      C1146   1.523       .  S
C1140      C1141   1.396       .  A
C1140      H1145   1.084       .  S
C1141      C1142   1.413       .  A
C1142      C1143   1.518       .  S
C1143      F1147   1.385       .  S
C1143      F1148   1.382       .  S
C1143      F1149   1.384       .  S
C1146      F1150   1.384       .  S
C1146      F1151   1.383       .  S
C1146      F1152   1.385       .  S
C1153      C1154   1.405       .  A
C1153      C1158   1.415       .  A
C1153      H1160   1.084       .  S
C1154      C1155   1.416       .  A
C1155      C1156   1.396       .  A
C1155      C1162   1.517       .  S
C1156      C1157   1.396       .  A
C1156      H1161   1.085       .  S
C1157      C1158   1.415       .  A
C1158      C1159   1.513       .  S
C1159      F1163   1.384       .  S
C1159      F1164   1.383       .  S
C1159      F1165   1.383       .  S
C1162      F1166   1.382       .  S
C1162      F1167   1.379       .  S
C1162      F1168   1.385       .  S
C1169      C1170   1.403       .  A
C1169      C1174   1.398       .  A
C1169      H1176   1.083       .  S
C1170      C1171   1.420       .  A
C1171      C1172   1.416       .  A
C1171      C1178   1.516       .  S
C1172      C1173   1.404       .  A
C1172      H1177   1.082       .  S
C1173      C1174   1.412       .  A
C1174      C1175   1.521       .  S
C1175      F1179   1.385       .  S
C1175      F1180   1.383       .  S
C1175      F1181   1.383       .  S
C1178      F1182   1.382       .  S
C1178      F1183   1.384       .  S
C1178      F1184   1.385       .  S
C1185      C1186   1.403       .  A
C1185      C1190   1.398       .  A
C1185      H1192   1.082       .  S
C1186      C1187   1.422       .  A
C1187      C1188   1.416       .  A
C1187      C1194   1.518       .  S
C1188      C1189   1.407       .  A
C1188      H1193   1.082       .  S
C1189      C1190   1.420       .  A
C1190      C1191   1.525       .  S
C1191      F1195   1.385       .  S
C1191      F1196   1.383       .  S
C1191      F1197   1.383       .  S
C1194      F1198   1.383       .  S
C1194      F1199   1.383       .  S
C1194      F1200   1.385       .  S
C1201      C1202   1.406       .  A
C1201      C1206   1.412       .  A
C1201      H1208   1.082       .  S
C1202      C1203   1.424       .  A
C1203      C1204   1.401       .  A
C1203      C1210   1.513       .  S
C1204      C1205   1.395       .  A
C1204      H1209   1.084       .  S
C1205      C1206   1.417       .  A
C1206      C1207   1.517       .  S
C1207      F1211   1.385       .  S
C1207      F1212   1.384       .  S
C1207      F1213   1.381       .  S
C1210      F1214   1.384       .  S
C1210      F1215   1.379       .  S
C1210      F1216   1.385       .  S
C1217      C1218   1.402       .  A
C1217      C1222   1.405       .  A
C1217      H1224   1.084       .  S
C1218      C1219   1.421       .  A
C1219      C1220   1.407       .  A
C1219      C1226   1.516       .  S
C1220      C1221   1.401       .  A
C1220      H1225   1.084       .  S
C1221      C1222   1.417       .  A
C1222      C1223   1.508       .  S
C1223      F1227   1.385       .  S
C1223      F1228   1.381       .  S
C1223      F1229   1.379       .  S
C1226      F1230   1.381       .  S
C1226      F1231   1.380       .  S
C1226      F1232   1.385       .  S
C1233      C1234   1.405       .  A
C1233      C1238   1.413       .  A
C1233      H1240   1.083       .  S
C1234      C1235   1.418       .  A
C1235      C1236   1.400       .  A
C1235      C1242   1.522       .  S
C1236      C1237   1.398       .  A
C1236      H1241   1.084       .  S
C1237      C1238   1.413       .  A
C1238      C1239   1.514       .  S
C1239      F1243   1.384       .  S
C1239      F1244   1.383       .  S
C1239      F1245   1.383       .  S
C1242      F1246   1.383       .  S
C1242      F1247   1.382       .  S
C1242      F1248   1.385       .  S
C1249      C1250   1.405       .  A
C1249      C1254   1.408       .  A
C1249      H1256   1.083       .  S
C1250      C1251   1.423       .  A
C1251      C1252   1.408       .  A
C1251      C1258   1.519       .  S
C1252      C1253   1.401       .  A
C1252      H1257   1.084       .  S
C1253      C1254   1.420       .  A
C1254      C1255   1.520       .  S
C1255      F1259   1.385       .  S
C1255      F1260   1.382       .  S
C1255      F1261   1.384       .  S
C1258      F1262   1.383       .  S
C1258      F1263   1.384       .  S
C1258      F1264   1.385       .  S
C1265      C1266   1.409       .  A
C1265      C1270   1.422       .  A
C1265      H1272   1.083       .  S
C1266      C1267   1.418       .  A
C1267      C1268   1.396       .  A
C1267      C1274   1.512       .  S
C1268      C1269   1.399       .  A
C1268      H1273   1.084       .  S
C1269      C1270   1.420       .  A
C1270      C1271   1.514       .  S
C1271      F1275   1.384       .  S
C1271      F1276   1.383       .  S
C1271      F1277   1.383       .  S
C1274      F1278   1.382       .  S
C1274      F1279   1.381       .  S
C1274      F1280   1.385       .  S
C1281      C1282   1.405       .  A
C1281      C1286   1.413       .  A
C1281      H1288   1.083       .  S
C1282      C1283   1.412       .  A
C1283      C1284   1.401       .  A
C1283      C1290   1.522       .  S
C1284      C1285   1.410       .  A
C1284      H1289   1.082       .  S
C1285      C1286   1.422       .  A
C1286      C1287   1.518       .  S
C1287      F1291   1.385       .  S
C1287      F1292   1.384       .  S
C1287      F1293   1.383       .  S
C1290      F1294   1.382       .  S
C1290      F1295   1.384       .  S
C1290      F1296   1.384       .  S
C1297      C1298   1.404       .  A
C1297      C1302   1.417       .  A
C1297      H1304   1.083       .  S
C1298      C1299   1.414       .  A
C1299      C1300   1.399       .  A
C1299      C1306   1.517       .  S
C1300      C1301   1.404       .  A
C1300      H1305   1.083       .  S
C1301      C1302   1.423       .  A
C1302      C1303   1.516       .  S
C1303      F1307   1.384       .  S
C1303      F1308   1.383       .  S
C1303      F1309   1.383       .  S
C1306      F1310   1.382       .  S
C1306      F1311   1.382       .  S
C1306      F1312   1.385       .  S
C1313      C1314   1.393       .  A
C1313      C1318   1.391   1_545  A
C1313      H1320   1.085       .  S
C1314      C1315   1.416       .  A
C1315      C1316   1.420   1_545  A
C1315      C1322   1.512       .  S
C1316      C1317   1.407       .  A
C1316      H1321   1.083       .  S
C1317      C1318   1.412       .  A
C1318      C1319   1.511       .  S
C1319      F1323   1.385   1_565  S
C1319      F1324   1.382       .  S
C1319      F1325   1.382       .  S
C1322      F1326   1.383       .  S
C1322      F1327   1.383       .  S
C1322      F1328   1.384       .  S
C1329      C1330   1.405       .  A
C1329      C1334   1.416       .  A
C1329      H1336   1.083       .  S
C1330      C1331   1.412       .  A
C1331      C1332   1.399       .  A
C1331      C1338   1.521       .  S
C1332      C1333   1.405       .  A
C1332      H1337   1.083       .  S
C1333      C1334   1.421       .  A
C1334      C1335   1.516       .  S
C1335      F1339   1.385   1_565  S
C1335      F1340   1.382       .  S
C1335      F1341   1.384       .  S
C1338      F1342   1.383       .  S
C1338      F1343   1.382       .  S
C1338      F1344   1.384       .  S
C1345      C1346   1.407       .  A
C1345      C1350   1.422       .  A
C1345      H1352   1.083       .  S
C1346      C1347   1.417       .  A
C1347      C1348   1.394       .  A
C1347      C1354   1.515       .  S
C1348      C1349   1.401       .  A
C1348      H1353   1.084       .  S
C1349      C1350   1.423       .  A
C1350      C1351   1.515       .  S
C1351      F1355   1.384       .  S
C1351      F1356   1.383       .  S
C1351      F1357   1.383       .  S
C1354      F1358   1.383       .  S
C1354      F1359   1.381       .  S
C1354      F1360   1.385       .  S
C1361      C1362   1.399       .  A
C1361      C1366   1.404       .  A
C1361      H1368   1.085       .  S
C1362      C1363   1.418       .  A
C1363      C1364   1.407       .  A
C1363      C1370   1.507       .  S
C1364      C1365   1.399       .  A
C1364      H1369   1.084       .  S
C1365      C1366   1.418       .  A
C1366      C1367   1.510       .  S
C1367      F1371   1.385       .  S
C1367      F1372   1.380       .  S
C1367      F1373   1.380       .  S
C1370      F1374   1.379       .  S
C1370      F1375   1.380       .  S
C1370      F1376   1.385       .  S
C1377      C1378   1.408       .  A
C1377      C1382   1.408       .  A
C1377      H1384   1.083       .  S
C1378      C1379   1.420       .  A
C1379      C1380   1.410       .  A
C1379      C1386   1.519       .  S
C1380      C1381   1.407       .  A
C1380      H1385   1.083       .  S
C1381      C1382   1.418       .  A
C1382      C1383   1.520       .  S
C1383      F1387   1.385       .  S
C1383      F1388   1.384       .  S
C1383      F1389   1.383       .  S
C1386      F1390   1.383       .  S
C1386      F1391   1.383       .  S
C1386      F1392   1.385       .  S
C1393      C1394   1.407       .  A
C1393      C1398   1.401       .  A
C1393      H1400   1.083       .  S
C1394      C1395   1.424       .  A
C1395      C1396   1.417       .  A
C1395      C1402   1.518       .  S
C1396      C1397   1.404       .  A
C1396      H1401   1.083       .  S
C1397      C1398   1.416       .  A
C1398      C1399   1.522       .  S
C1399      F1403   1.384       .  S
C1399      F1404   1.383       .  S
C1399      F1405   1.382       .  S
C1402      F1406   1.383       .  S
C1402      F1407   1.383       .  S
C1402      F1408   1.385       .  S
C1409      C1410   1.406       .  A
C1409      C1414   1.413       .  A
C1409      H1416   1.082       .  S
C1410      C1411   1.418       .  A
C1411      C1412   1.401       .  A
C1411      C1418   1.521       .  S
C1412      C1413   1.405       .  A
C1412      H1417   1.083       .  S
C1413      C1414   1.422       .  A
C1414      C1415   1.515       .  S
C1415      F1419   1.385       .  S
C1415      F1420   1.377       .  S
C1415      F1421   1.383       .  S
C1418      F1422   1.383       .  S
C1418      F1423   1.384       .  S
C1418      F1424   1.384       .  S
C1425      C1426   1.404       .  A
C1425      C1430   1.415   1_545  A
C1425      H1432   1.083       .  S
C1426      C1427   1.415       .  A
C1427      C1428   1.402       .  A
C1427      C1434   1.521       .  S
C1428      C1429   1.406   1_545  A
C1428      H1433   1.083       .  S
C1429      C1430   1.422       .  A
C1430      C1431   1.517       .  S
C1431      F1435   1.385       .  S
C1431      F1436   1.383       .  S
C1431      F1437   1.382       .  S
C1434      F1438   1.382       .  S
C1434      F1439   1.383       .  S
C1434      F1440   1.385       .  S
