geometry optimzed in LAMMPS
_audit_creation_date              2020-11-30 
_audit_creation_method            'lammps2cif' 
_symmetry_space_group_name_H-M    'P1' 
_symmetry_Int_Tables_number       1 
_symmetry_cell_setting            triclinic 
loop_ 
_symmetry_equiv_pos_as_xyz 
  x,y,z 
_cell_length_a                    36.993785714614205 
_cell_length_b                    39.49622998724057 
_cell_length_c                    39.48915406960236 
_cell_angle_alpha                 89.91108481106895 
_cell_angle_beta                  88.37822031866176 
_cell_angle_gamma                 89.23909349010138 
loop_ 
_atom_site_label 
_atom_site_type_symbol 
_atom_site_fract_x 
_atom_site_fract_y 
_atom_site_fract_z 
_atom_site_charge 
O1          O  0.47384644  0.53312357  0.58229700    -0.80900
O2          O  0.53139277  0.43446415  0.46179323    -0.65590
O3          O  0.51720579  0.50798229  0.52792576    -1.12190
C4          C  0.44265506  0.54462605  0.44213262     1.05990
O5          O  0.53665477  0.46939035  0.41817401    -0.78800
O6          O  0.54792687  0.53467661  0.44400959    -0.66380
Ni7        Ni  0.50077626  0.49273319  0.57207715     1.34870
C8          C  0.54624618  0.55965994  0.46486600     0.84720
O9          O  0.56629836  0.45420823  0.52421228    -0.79340
O10         O  0.53024078  0.45329793  0.56833461    -0.89610
C11         C  0.53252867  0.43945405  0.42953815     0.84290
O12         O  0.45846814  0.46939870  0.55465880    -0.67820
O13         O  0.47438048  0.54667646  0.42905162    -0.87100
C14         C  0.46023014  0.44360482  0.53497442     0.85120
C15         C  0.56231383  0.45507580  0.55657664     1.06690
H16         H  0.46881660  0.48013447  0.46874519     0.38500
O17         O  0.49009050  0.49374939  0.47078354    -1.09760
O18         O  0.51765550  0.56349614  0.48390227    -0.66420
Ni19       Ni  0.48082723  0.53080293  0.50250964     1.26350
O20         O  0.48857021  0.43911414  0.51569813    -0.66640
O21         O  0.43990983  0.54647416  0.47463438    -0.78940
C22         C  0.47541043  0.56258229  0.56949552     0.84510
O23         O  0.47464475  0.56671616  0.53712248    -0.66110
Ni24       Ni  0.50683384  0.50878142  0.42671807     1.27450
Ni25       Ni  0.52596715  0.47065150  0.49630163     1.26060
H26         H  0.53868248  0.52166291  0.52975222     0.39050
O27         O  0.47314476  0.20499370  0.16478762    -0.80900
O28         O  0.53857484  0.31457824  0.26698831    -0.65590
O29         O  0.52237529  0.23546991  0.20905336    -1.12190
C30         C  0.45620201  0.20164574  0.30857378     1.05990
O31         O  0.55338119  0.28089838  0.30815402    -0.78800
O32         O  0.55877686  0.21252706  0.29619213    -0.66380
Ni33       Ni  0.50093106  0.24597848  0.16621843     1.34870
C34         C  0.55838461  0.18760457  0.27544707     0.84720
O35         O  0.56764506  0.29070403  0.20162498    -0.79340
O36         O  0.53066316  0.28505754  0.15943681    -0.89610
C37         C  0.54399378  0.31036925  0.29869099     0.84290
O38         O  0.46027598  0.27271062  0.18650352    -0.67820
O39         O  0.48549676  0.21015998  0.32226944    -0.87100
C40         C  0.46266508  0.29930387  0.20501352     0.85120
C41         C  0.56281289  0.28804664  0.16956761     1.06690
H42         H  0.47799783  0.26634896  0.27162287     0.38500
O43         O  0.50011411  0.25323382  0.26839927    -1.09760
O44         O  0.53109560  0.18368962  0.25659451    -0.66420
Ni45       Ni  0.49058805  0.21342365  0.24142989     1.26350
O46         O  0.49200101  0.30487404  0.22041648    -0.66640
O47         O  0.45487506  0.19758011  0.27614013    -0.78940
C48         C  0.47827395  0.17624430  0.17871330     0.84510
O49         O  0.48317931  0.17455699  0.21083788    -0.66110
Ni50       Ni  0.52038971  0.24433654  0.31193503     1.27450
Ni51       Ni  0.53201102  0.27533680  0.23626173     1.26060
H52         H  0.54426376  0.22240417  0.20530771     0.39050
C53         C  0.78860523  0.74608847  0.78163484     0.03120
C54         C  0.80541356  0.75945974  0.75255652    -0.13030
C55         C  0.79039129  0.78814451  0.73727960     0.00620
C56         C  0.75876341  0.80278612  0.75086142    -0.11560
C57         C  0.74184130  0.78814985  0.77892636     0.03110
C58         C  0.75597075  0.75939425  0.79368677    -0.10980
H59         H  0.83027796  0.74813527  0.74244174     0.08700
H60         H  0.74791923  0.82604642  0.74030750     0.06230
H61         H  0.74220260  0.74820677  0.81553074     0.06080
C62         C  0.74963694  0.98260200  0.97145840     0.03120
C63         C  0.75237817  0.97560848  0.00608007    -0.13030
C64         C  0.78172365  0.98733859  0.02348279     0.00620
C65         C  0.80404675  0.01175484  0.00942729    -0.11560
C66         C  0.79867077  0.02225379  0.97643694     0.03110
C67         C  0.77381097  0.00564594  0.95648636    -0.10980
H68         H  0.73351435  0.95919059  0.01926750     0.08700
H69         H  0.82553167  0.02230298  0.02410817     0.06230
H70         H  0.77243822  0.01224711  0.92994715     0.06080
C71         C  0.01098206  0.78972608  0.97573056     0.03120
C72         C  0.00332219  0.75858199  0.96118734    -0.13030
C73         C  0.98040266  0.73623759  0.97827060     0.00620
C74         C  0.96635972  0.74439496  0.01040795    -0.11560
C75         C  0.97227246  0.77626611  0.02356960     0.03110
C76         C  0.99398969  0.79922774  0.00610283    -0.10980
H77         H  0.01432139  0.75224199  0.93625103     0.08700
H78         H  0.94848413  0.72710241  0.02386557     0.06230
H79         H  0.99771832  0.82441061  0.01624109     0.06080
C80         C  0.98032482  0.98632747  0.73907562     0.03120
C81         C  0.96757968  0.01802342  0.75006950    -0.13030
C82         C  0.98185067  0.03237598  0.77901015     0.00620
C83         C  0.01043983  0.01658071  0.79513181    -0.11560
C84         C  0.02212459  0.98467055  0.78473939     0.03110
C85         C  0.00614020  0.96898697  0.75759062    -0.10980
H86         H  0.94608102  0.03095010  0.73690770     0.08700
H87         H  0.02256137  0.02851865  0.81667412     0.06230
H88         H  0.01436826  0.94345395  0.75048238     0.06080
O89         O  0.13773855  0.83933474  0.87985564    -0.74440
O90         O  0.21690078  0.87790610  0.83102945    -0.74470
O91         O  0.20735258  0.82578258  0.88186126    -0.74520
O92         O  0.14672982  0.88613229  0.83262025    -0.74570
O93         O  0.15021051  0.92508026  0.87347795    -0.74500
O94         O  0.21388318  0.86598847  0.92040392    -0.74480
O95         O  0.22022539  0.91901364  0.86894821    -0.74460
O96         O  0.14408711  0.87791919  0.92064087    -0.74520
Ni97       Ni  0.17793612  0.85569025  0.85480030     1.25410
Ni98       Ni  0.18335584  0.89829609  0.89746387     1.25360
C99         C  0.12724947  0.85340530  0.90757172     0.87740
C100        C  0.22330744  0.90901639  0.83808213     0.87670
C101        C  0.21277611  0.83430019  0.91261355     0.87700
C102        C  0.13748864  0.91457609  0.84574438     0.87870
O103        O  0.91985451  0.87233017  0.14008730    -0.74440
O104        O  0.86996155  0.93366557  0.20106015    -0.74470
O105        O  0.92479957  0.87964838  0.20542535    -0.74520
O106        O  0.87114754  0.92192074  0.13601070    -0.74570
O107        O  0.82536668  0.88635072  0.14563770    -0.74500
O108        O  0.88381498  0.83943792  0.21030828    -0.74480
O109        O  0.82867377  0.89459626  0.21191529    -0.74460
O110        O  0.87404709  0.83614422  0.14574385    -0.74520
Ni111      Ni  0.89809541  0.90340567  0.17124862     1.25410
Ni112      Ni  0.85124434  0.86287953  0.17969190     1.25360
C113        C  0.90439544  0.84467405  0.13252590     0.87740
C114        C  0.83728413  0.92609870  0.21007751     0.87670
C115        C  0.91705926  0.84856829  0.21183463     0.87700
C116        C  0.84013722  0.91063320  0.12914430     0.87870
O117        O  0.84204082  0.88298093  0.61263327    -0.74440
O118        O  0.90115708  0.93434406  0.54973696    -0.74470
O119        O  0.84419672  0.88263746  0.54596985    -0.74520
O120        O  0.89203256  0.93024130  0.61502626    -0.74570
O121        O  0.93682547  0.89172615  0.61415625    -0.74500
O122        O  0.88284365  0.83961206  0.54967621    -0.74480
O123        O  0.94133277  0.89232339  0.54723656    -0.74460
O124        O  0.88669743  0.84439370  0.61522497    -0.74520
Ni125      Ni  0.86830589  0.90896428  0.57976737     1.25410
Ni126      Ni  0.91368937  0.86547512  0.58042705     1.25360
C127        C  0.85622906  0.85637789  0.62555252     0.87740
C128        C  0.93438571  0.92441280  0.54544827     0.87670
C129        C  0.85047918  0.85051353  0.54360107     0.87700
C130        C  0.92125536  0.91827605  0.62670220     0.87870
O131        O  0.87394400  0.62093251  0.83761242    -0.74440
O132        O  0.92379119  0.54918008  0.88121925    -0.74470
O133        O  0.86424214  0.55633957  0.83306587    -0.74520
O134        O  0.92650737  0.61597303  0.88171140    -0.74570
O135        O  0.88441718  0.61830954  0.92334191    -0.74500
O136        O  0.82619748  0.55553394  0.87741368    -0.74480
O137        O  0.88652611  0.55302041  0.92602904    -0.74460
O138        O  0.83163833  0.62169917  0.87922643    -0.74520
Ni139      Ni  0.89869259  0.58450697  0.85688473     1.25410
Ni140      Ni  0.85558648  0.58615878  0.90307778     1.25360
C141        C  0.84494230  0.63294362  0.85115898     0.87740
C142        C  0.91840685  0.54615200  0.91346373     0.87670
C143        C  0.83155376  0.55338404  0.84506197     0.87700
C144        C  0.91371672  0.62861383  0.90947041     0.87870
O145        O  0.61419050  0.84876306  0.87279389    -0.74440
O146        O  0.54600329  0.90635859  0.91988029    -0.74470
O147        O  0.54403742  0.85037272  0.87012540    -0.74520
O148        O  0.61631956  0.89930644  0.91634743    -0.74570
O149        O  0.61875154  0.93660693  0.87402539    -0.74500
O150        O  0.54768339  0.88597658  0.82680610    -0.74480
O151        O  0.54738818  0.94193056  0.87631495    -0.74460
O152        O  0.61767250  0.88597363  0.82997539    -0.74520
Ni153      Ni  0.57890905  0.87491651  0.89638975     1.25410
Ni154      Ni  0.58191316  0.91420413  0.85029314     1.25360
C155        C  0.62768929  0.85871964  0.84451775     0.87740
C156        C  0.54232605  0.93665810  0.90837913     0.87670
C157        C  0.54263968  0.85564360  0.83785206     0.87700
C158        C  0.63082285  0.92487095  0.90176483     0.87870
O159        O  0.89248108  0.15491287  0.93644910    -0.74440
O160        O  0.94083898  0.21784011  0.87688419    -0.74470
O161        O  0.88967634  0.22142158  0.93608890    -0.74520
O162        O  0.93698058  0.15144002  0.88272261    -0.74570
O163        O  0.88924111  0.14992161  0.84930663    -0.74500
O164        O  0.84455253  0.22143995  0.90049590    -0.74480
O165        O  0.89592517  0.21487728  0.84110570    -0.74460
O166        O  0.84508366  0.15520720  0.90261437    -0.74520
Ni167      Ni  0.91679179  0.18745427  0.90928938     1.25410
Ni168      Ni  0.86691276  0.18649163  0.87212442     1.25360
C169        C  0.86195089  0.14343579  0.92803258     0.87740
C170        C  0.92998740  0.21901453  0.84610754     0.87670
C171        C  0.85551716  0.22494658  0.93097441     0.87700
C172        C  0.91996658  0.13870805  0.85808030     0.87870
O173        O  0.21741541  0.42054406  0.29368698    -0.80900
O174        O  0.29042223  0.52423806  0.19019120    -0.65590
O175        O  0.26986605  0.46410955  0.26724705    -1.12190
C176        C  0.19745209  0.56089637  0.30148366     1.05990
O177        O  0.30185447  0.56405101  0.22587016    -0.78800
O178        O  0.29945481  0.55453782  0.29404409    -0.66380
Ni179      Ni  0.25099539  0.42055131  0.25587456     1.34870
C180        C  0.29966815  0.53210052  0.31751089     0.84720
O181        O  0.32011473  0.45959817  0.21352344    -0.79340
O182        O  0.28628855  0.41413423  0.21962979    -0.89610
C183        C  0.29462555  0.55582723  0.19586513     0.84290
O184        O  0.21319061  0.43813664  0.22609119    -0.67820
O185        O  0.22488247  0.57680866  0.29012635    -0.87100
C186        C  0.21619144  0.45826807  0.20068624     0.85120
C187        C  0.31760457  0.42712505  0.21653574     1.06690
H188        H  0.22559159  0.52481491  0.23689682     0.38500
O189        O  0.24692639  0.52271866  0.25035996    -1.09760
O190        O  0.27441663  0.51039044  0.31984133    -0.66420
Ni191      Ni  0.23590702  0.49476409  0.28988162     1.26350
O192        O  0.24472121  0.47601034  0.19679431    -0.66640
O193        O  0.19860826  0.52834502  0.30671843    -0.78940
C194        C  0.22416018  0.43043016  0.32346484     0.84510
O195        O  0.22802481  0.46243242  0.32816118    -0.66110
Ni196      Ni  0.26448958  0.56739522  0.25948138     1.27450
Ni197      Ni  0.28172483  0.49237956  0.22835073     1.26060
H198        H  0.29109370  0.46091551  0.28069129     0.39050
O199        O  0.18101986  0.29495712  0.54129887    -0.80900
O200        O  0.28690830  0.21970607  0.43641661    -0.65590
O201        O  0.22492629  0.24289544  0.51530240    -1.12190
C202        C  0.33097286  0.30385975  0.54272364     1.05990
O203        O  0.33341048  0.20889227  0.46826066    -0.78800
O204        O  0.31523353  0.20629002  0.53534921    -0.66380
Ni205      Ni  0.17864020  0.26304437  0.50535622     1.34870
C206        C  0.29293565  0.20897903  0.56055861     0.84720
O207        O  0.21724205  0.19699112  0.46287565    -0.79340
O208        O  0.16871254  0.22970766  0.47113740    -0.89610
C209        C  0.32080066  0.21321097  0.43897204     0.84290
O210        O  0.19891898  0.29745749  0.47448209    -0.67820
O211        O  0.34486915  0.27431497  0.53876156    -0.87100
C212        C  0.22164965  0.29456387  0.44959883     0.85120
C213        C  0.18264397  0.20017450  0.46718598     1.06690
H214        H  0.29181742  0.28028827  0.48054700     0.38500
O215        O  0.28833939  0.26065257  0.49493273    -1.09760
O216        O  0.27541616  0.23676049  0.56551458    -0.66420
Ni217      Ni  0.25911303  0.27325872  0.53471748     1.26350
O218        O  0.23857366  0.26654099  0.44465996    -0.66640
O219        O  0.29620376  0.30693184  0.54690235    -0.78940
C220        C  0.19163569  0.28809768  0.57079167     0.84510
O221        O  0.22576299  0.28299388  0.57430260    -0.66110
Ni222      Ni  0.33489490  0.24093723  0.50444055     1.27450
Ni223      Ni  0.25417870  0.23020225  0.47566952     1.26060
H224        H  0.22125893  0.22333833  0.52968071     0.39050
O225        O  0.46390222  0.72444513  0.68575312    -0.80900
O226        O  0.53810931  0.82797065  0.78133247    -0.65590
O227        O  0.51890257  0.74856281  0.72522986    -1.12190
C228        C  0.44697225  0.71953686  0.82519352     1.05990
O229        O  0.54770626  0.79575094  0.82558064    -0.78800
O230        O  0.55210321  0.72575012  0.81237737    -0.66380
Ni231      Ni  0.50139700  0.75644336  0.68025105     1.34870
C232        C  0.55056529  0.70042594  0.79195261     0.84720
O233        O  0.56744430  0.80292984  0.71549263    -0.79340
O234        O  0.54070888  0.78576163  0.66821749    -0.89610
C235        C  0.54103930  0.82516921  0.81367101     0.84290
O236        O  0.46651644  0.79250442  0.69227469    -0.67820
O237        O  0.47718374  0.72549713  0.83891256    -0.87100
C238        C  0.46648685  0.81691125  0.71349391     0.85120
C239        C  0.56824882  0.79714284  0.68288820     1.06690
H240        H  0.47495905  0.78282522  0.78622672     0.38500
O241        O  0.49626223  0.76854058  0.78371146    -1.09760
O242        O  0.52256056  0.69714250  0.77391009    -0.66420
Ni243      Ni  0.48443468  0.72896844  0.75764846     1.26350
O244        O  0.49170882  0.81928617  0.73473818    -0.66640
O245        O  0.44623638  0.71628880  0.79248079    -0.78940
C246        C  0.47048413  0.69454274  0.69559272     0.84510
O247        O  0.47536694  0.69017474  0.72734817    -0.66110
Ni248      Ni  0.51413616  0.75890646  0.82815469     1.27450
Ni249      Ni  0.53026338  0.78865985  0.75105138     1.26060
H250        H  0.54028599  0.73428653  0.72332236     0.39050
O251        O  0.19825291  0.81821693  0.96950771    -0.80900
O252        O  0.26909242  0.72062958  0.07778377    -0.65590
O253        O  0.25155165  0.77880756  0.99930481    -1.12190
C254        C  0.19303560  0.67917193  0.96456719     1.05990
O255        O  0.28962544  0.68271237  0.04244635    -0.78800
O256        O  0.29402290  0.69100299  0.97430819    -0.66380
Ni257      Ni  0.22605792  0.82069547  0.00926511     1.34870
C258        C  0.29397778  0.71213326  0.94984676     0.84720
O259        O  0.29342829  0.78619164  0.05499544    -0.79340
O260        O  0.25516235  0.82865513  0.04738156    -0.89610
C261        C  0.27902764  0.68995699  0.07229903     0.84290
O262        O  0.18645251  0.80102892  0.03720885    -0.67820
O263        O  0.22193078  0.66459694  0.97415574    -0.87100
C264        C  0.18940129  0.78243464  0.06367590     0.85120
C265        C  0.28741886  0.81798440  0.05056861     1.06690
H266        H  0.21007855  0.71545235  0.02801952     0.38500
O267        O  0.23265684  0.71914499  0.01568682    -1.09760
O268        O  0.26680093  0.73220248  0.94665666    -0.66420
Ni269      Ni  0.22394936  0.74612336  0.97565392     1.26350
O270        O  0.21909107  0.76618212  0.06838149    -0.66640
O271        O  0.19160269  0.71135577  0.95861007    -0.78940
C272        C  0.21102085  0.80847543  0.94091209     0.84510
O273        O  0.21784936  0.77685358  0.93683573    -0.66110
Ni274      Ni  0.25642594  0.67644267  0.00723975     1.27450
Ni275      Ni  0.26111370  0.75147932  0.03898106     1.26060
H276        H  0.27385250  0.78339359  0.98699261     0.39050
O277        O  0.96712862  0.54040903  0.07210457    -0.80900
O278        O  0.05154786  0.43454472  0.98261916    -0.65590
O279        O  0.02333937  0.51497240  0.03403634    -1.12190
C280        C  0.95078986  0.53692854  0.93532282     1.05990
O281        O  0.05954937  0.46794239  0.93994309    -0.78800
O282        O  0.05187954  0.53383825  0.93954830    -0.66380
Ni283      Ni  0.00308431  0.50663112  0.07830390     1.34870
C284        C  0.05245070  0.55761767  0.96125781     0.84720
O285        O  0.07599734  0.46533200  0.04410910    -0.79340
O286        O  0.04086574  0.47461190  0.08997370    -0.89610
C287        C  0.05476016  0.43822220  0.95069982     0.84290
O288        O  0.96843646  0.47359263  0.06249421    -0.67820
O289        O  0.97764071  0.52301019  0.91949319    -0.87100
C290        C  0.97321081  0.44773363  0.04354804     0.85120
C291        C  0.07237219  0.46977525  0.07653066     1.06690
H292        H  0.98236587  0.47617577  0.97802117     0.38500
O293        O  0.00287917  0.49107552  0.97787634    -1.09760
O294        O  0.02719492  0.56131012  0.98339073    -0.66420
Ni295      Ni  0.98912023  0.53227908  0.00158616     1.26350
O296        O  0.00353634  0.44277614  0.02839856    -0.66640
O297        O  0.95238319  0.54485015  0.96721471    -0.78940
C298        C  0.97437922  0.56967114  0.06103653     0.84510
O299        O  0.97901446  0.57299597  0.02907042    -0.66110
Ni300      Ni  0.01954428  0.49641626  0.93176508     1.27450
Ni301      Ni  0.03880222  0.47486722  0.00982385     1.26060
H302        H  0.04353969  0.53006805  0.03592504     0.39050
O303        O  0.22928827  0.92089864  0.77959078    -0.80900
O304        O  0.28858793  0.04118998  0.68253206    -0.65590
O305        O  0.27245741  0.97471752  0.75559075    -1.12190
C306        C  0.19641691  0.06122401  0.79675509     1.05990
O307        O  0.28777264  0.08545582  0.71691435    -0.78800
O308        O  0.29978571  0.05639724  0.78117074    -0.66380
Ni309      Ni  0.25824220  0.93095383  0.73999740     1.34870
C310        C  0.29625933  0.03657125  0.80678980     0.84720
O311        O  0.32461862  0.97768148  0.70378382    -0.79340
O312        O  0.29039315  0.93360779  0.70165787    -0.89610
C313        C  0.28679527  0.07354090  0.68704699     0.84290
O314        O  0.21698890  0.95061987  0.71593380    -0.67820
O315        O  0.22809171  0.07307851  0.79619391    -0.87100
C316        C  0.21898551  0.97083804  0.69053018     0.85120
C317        C  0.32204816  0.94518715  0.70418955     1.06690
H318        H  0.22339148  0.03477387  0.72659719     0.38500
O319        O  0.24397206  0.03226358  0.74074398    -1.09760
O320        O  0.26812415  0.01834270  0.81029465    -0.66420
Ni321      Ni  0.23404116  0.00036616  0.77740557     1.26350
O322        O  0.24765792  0.98829729  0.68571450    -0.66640
O323        O  0.19303802  0.02901451  0.79415177    -0.78940
C324        C  0.22849301  0.93362343  0.80910486     0.84510
O325        O  0.22748115  0.96593669  0.81313289    -0.66110
Ni326      Ni  0.25892295  0.07567868  0.75680363     1.27450
Ni327      Ni  0.28238578  0.00648678  0.71872005     1.26060
H328        H  0.29324384  0.97249449  0.76999157     0.39050
O329        O  0.71795803  0.82570510  0.46099377    -0.80900
O330        O  0.78641955  0.73411300  0.56969174    -0.65590
O331        O  0.76905636  0.78494714  0.48777809    -1.12190
C332        C  0.69503158  0.68560739  0.46552308     1.05990
O333        O  0.79800860  0.69111826  0.53701192    -0.78800
O334        O  0.79910578  0.69286670  0.46835965    -0.66380
Ni335      Ni  0.75274934  0.83104478  0.49431992     1.34870
C336        C  0.79916404  0.71306804  0.44289772     0.84720
O337        O  0.81748288  0.79495196  0.54140273    -0.79340
O338        O  0.79043341  0.84275386  0.52483282    -0.89610
C339        C  0.78904288  0.70219340  0.56622872     0.84290
O340        O  0.71540514  0.82168209  0.52972989    -0.67820
O341        O  0.72378909  0.67048760  0.47515588    -0.87100
C342        C  0.71469197  0.80124033  0.55498780     0.85120
C343        C  0.81839633  0.82734268  0.53545079     1.06690
H344        H  0.72354024  0.72840810  0.52520027     0.38500
O345        O  0.74510289  0.72897654  0.51081702    -1.09760
O346        O  0.77268518  0.73370732  0.43930338    -0.66420
Ni347      Ni  0.73415368  0.75273117  0.46989985     1.26350
O348        O  0.74068591  0.78022412  0.55881736    -0.66640
O349        O  0.69582729  0.71808469  0.45872652    -0.78940
C350        C  0.72443308  0.81308485  0.43198469     0.84510
O351        O  0.72643294  0.78078450  0.42945209    -0.66110
Ni352      Ni  0.76255647  0.68330337  0.50454089     1.27450
Ni353      Ni  0.77955879  0.76124107  0.52899024     1.26060
H354        H  0.79065551  0.78511694  0.47342206     0.39050
O355        O  0.04730768  0.81333532  0.29385521    -0.80900
O356        O  0.97032854  0.72620480  0.18809320    -0.65590
O357        O  0.98951053  0.77992112  0.26759463    -1.12190
C358        C  0.04836373  0.67645683  0.30131030     1.05990
O359        O  0.95307397  0.68485084  0.22091551    -0.78800
O360        O  0.94820109  0.69083777  0.28995721    -0.66380
Ni361      Ni  0.01363797  0.82189463  0.25925191     1.34870
C362        C  0.94772457  0.71252864  0.31409399     0.84720
O363        O  0.94520424  0.79124390  0.21295090    -0.79340
O364        O  0.97754975  0.83601885  0.22747370    -0.89610
C365        C  0.96393805  0.69479011  0.19179857     0.84290
O366        O  0.05054115  0.80548992  0.22565404    -0.67820
O367        O  0.02071927  0.66239011  0.28919327    -0.87100
C368        C  0.04854369  0.78510916  0.20064747     0.85120
C369        C  0.94769831  0.82339877  0.21870905     1.06690
H370        H  0.03025583  0.71678099  0.23635943     0.38500
O371        O  0.00788878  0.72014736  0.24922402    -1.09760
O372        O  0.97439972  0.73248333  0.31743740    -0.66420
Ni373      Ni  0.01768539  0.74548257  0.28964663     1.26350
O374        O  0.01990204  0.76781636  0.19743474    -0.66640
O375        O  0.04953858  0.70885060  0.30610464    -0.78940
C376        C  0.03683679  0.80551638  0.32370615     0.84510
O377        O  0.02623754  0.77516222  0.32876328    -0.66110
Ni378      Ni  0.98579880  0.67662220  0.25637890     1.27450
Ni379      Ni  0.97852395  0.75467108  0.22762312     1.26060
H380        H  0.96741792  0.78446278  0.28054610     0.39050
O381        O  0.53951768  0.98386753  0.07551544    -0.80900
O382        O  0.42262323  0.01954596  0.96919023    -0.65590
O383        O  0.49780629  0.97296627  0.01830575    -1.12190
C384        C  0.57146668  0.05587533  0.96445003     1.05990
O385        O  0.45706967  0.01193707  0.92306674    -0.78800
O386        O  0.52452070  0.99388043  0.91784235    -0.66380
Ni387      Ni  0.49430048  0.96238063  0.06477416     1.34870
C388        C  0.53536793  0.96682025  0.93188279     0.84720
O389        O  0.42097642  0.96807936  0.01517228    -0.79340
O390        O  0.44934904  0.93915323  0.05595822    -0.89610
C391        C  0.42589381  0.01706567  0.93664175     0.84290
O392        O  0.47183333  0.00337113  0.08129199    -0.67820
O393        O  0.54549766  0.05903893  0.94361991    -0.87100
C394        C  0.46313859  0.03097662  0.06694191     0.85120
C395        C  0.42293529  0.94316570  0.03580353     1.06690
H396        H  0.49666825  0.04570155  0.99134015     0.38500
O397        O  0.49816055  0.02385816  0.98038188    -1.09760
O398        O  0.54300047  0.96608955  0.96369394    -0.66420
Ni399      Ni  0.53685832  0.99988065  0.00138795     1.26350
O400        O  0.45479201  0.03172534  0.03521231    -0.66640
O401        O  0.57432074  0.03049656  0.98453346    -0.78940
C402        C  0.57047260  0.97850223  0.06146253     0.84510
O403        O  0.57352012  0.97715945  0.02890031    -0.66110
Ni404      Ni  0.50140425  0.03457581  0.93410515     1.27450
Ni405      Ni  0.45911120  0.99737428  0.99755276     1.26060
H406        H  0.49937554  0.95122925  0.00713254     0.39050
C407        C  0.26832917  0.71899559  0.26979226     0.03120
C408        C  0.27354328  0.73375620  0.23797491    -0.13030
C409        C  0.26601965  0.76836283  0.23362299     0.00620
C410        C  0.24935194  0.78657191  0.26029202    -0.11560
C411        C  0.24121167  0.77078850  0.29102987     0.03110
C412        C  0.25213981  0.73754503  0.29617299    -0.10980
H413        H  0.28616633  0.71899684  0.21766778     0.08700
H414        H  0.24305277  0.81316132  0.25756163     0.06230
H415        H  0.24796436  0.72614157  0.32096822     0.06080
O416        O  0.37113075  0.61290126  0.41561472    -0.74440
O417        O  0.32119097  0.53935107  0.37547762    -0.74470
O418        O  0.37743860  0.54869878  0.42779651    -0.74520
O419        O  0.32234190  0.60538425  0.36783306    -0.74570
O420        O  0.36723862  0.60192572  0.32898020    -0.74500
O421        O  0.41806059  0.54163614  0.38617328    -0.74480
O422        O  0.36287298  0.53679440  0.33420189    -0.74460
O423        O  0.41614196  0.60741246  0.37680410    -0.74520
Ni424      Ni  0.34626279  0.57577863  0.39828774     1.25410
Ni425      Ni  0.39276942  0.57084759  0.35527724     1.25360
C426        C  0.40141202  0.62196764  0.40271489     0.87740
C427        C  0.32948082  0.53368719  0.34400600     0.87670
C428        C  0.41073781  0.54370141  0.41811751     0.87700
C429        C  0.33642733  0.61332827  0.33891380     0.87870
C430        C  0.49548798  0.94158708  0.28967011     0.03120
C431        C  0.46953722  0.95671174  0.31080996    -0.13030
C432        C  0.44278092  0.97696537  0.29639389     0.00620
C433        C  0.43715032  0.97433000  0.26142987    -0.11560
C434        C  0.46181297  0.95591241  0.24071974     0.03110
C435        C  0.49305376  0.94333387  0.25488982    -0.10980
H436        H  0.47361299  0.95715373  0.33789535     0.08700
H437        H  0.41516579  0.98809977  0.25014839     0.06230
H438        H  0.51529728  0.93386377  0.23896418     0.06080
O439        O  0.63789786  0.90703567  0.36035956    -0.74440
O440        O  0.71356060  0.86767625  0.40994645    -0.74470
O441        O  0.70748535  0.91816126  0.36065257    -0.74520
O442        O  0.64343853  0.85892371  0.40801544    -0.74570
O443        O  0.65079078  0.82042609  0.36678679    -0.74500
O444        O  0.71690118  0.88024244  0.31962943    -0.74480
O445        O  0.72080796  0.82677111  0.37173164    -0.74460
O446        O  0.64697745  0.86847159  0.31933912    -0.74520
Ni447      Ni  0.67592702  0.88939724  0.38614584     1.25410
Ni448      Ni  0.68525881  0.84758873  0.34273814     1.25360
C449        C  0.62964928  0.89366434  0.33227841     0.87740
C450        C  0.72160899  0.83687249  0.40264612     0.87670
C451        C  0.71672114  0.91126276  0.32989943     0.87700
C452        C  0.63602790  0.83044923  0.39479108     0.87870
O453        O  0.32239164  0.87692522  0.12364416    -0.74440
O454        O  0.36142025  0.92679722  0.04827914    -0.74470
O455        O  0.30845222  0.87480002  0.05871772    -0.74520
O456        O  0.37169978  0.92481256  0.11375955    -0.74570
O457        O  0.41463500  0.88545946  0.10470553    -0.74500
O458        O  0.35012909  0.83401941  0.05255673    -0.74480
O459        O  0.40260769  0.88607849  0.03988924    -0.74460
O460        O  0.36558460  0.83760714  0.11634038    -0.74520
Ni461      Ni  0.33923115  0.90234415  0.08567010     1.25410
Ni462      Ni  0.38473656  0.85938683  0.07733055     1.25360
C463        C  0.33752301  0.84902677  0.13226814     0.87740
C464        C  0.39340619  0.91753750  0.03851235     0.87670
C465        C  0.31682085  0.84350722  0.05331920     0.87700
C466        C  0.40331932  0.91284024  0.11880474     0.87870
C467        C  0.23330208  0.97121529  0.48757439     0.03120
C468        C  0.25109904  0.99251962  0.46411667    -0.13030
C469        C  0.28511796  0.00498497  0.47090697     0.00620
C470        C  0.30325023  0.99417762  0.49925358    -0.11560
C471        C  0.28596109  0.97268094  0.52205144     0.03110
C472        C  0.25025094  0.96335881  0.51775870    -0.10980
H473        H  0.23879367  0.99985195  0.44060392     0.08700
H474        H  0.33040112  0.00281902  0.50380369     0.06230
H475        H  0.23671162  0.94889942  0.53748407     0.06080
C476        C  0.51515044  0.77062603  0.46052586     0.03120
C477        C  0.49726087  0.74239681  0.44950161    -0.13030
C478        C  0.46906026  0.72919503  0.46920006     0.00620
C479        C  0.45959276  0.74325770  0.50077141    -0.11560
C480        C  0.47827816  0.77152708  0.51179267     0.03110
C481        C  0.50570090  0.78530651  0.49157972    -0.10980
H482        H  0.50526578  0.73059127  0.42560010     0.08700
H483        H  0.43720272  0.73325393  0.51580359     0.06230
H484        H  0.51978370  0.80754027  0.50008308     0.06080
O485        O  0.35207460  0.88203069  0.63768113    -0.74440
O486        O  0.40404049  0.83545798  0.70652305    -0.74470
O487        O  0.34722557  0.88789480  0.70335562    -0.74520
O488        O  0.40333264  0.83417924  0.64037566    -0.74570
O489        O  0.44538922  0.87434768  0.63797013    -0.74500
O490        O  0.38745844  0.92888839  0.70060128    -0.74480
O491        O  0.44538628  0.87561712  0.70540556    -0.74460
O492        O  0.39413757  0.92222943  0.63559704    -0.74520
Ni493      Ni  0.37516009  0.85847459  0.67299162     1.25410
Ni494      Ni  0.41987424  0.90169011  0.67089117     1.25360
C495        C  0.36482334  0.90954266  0.62549868     0.87740
C496        C  0.43699762  0.84435911  0.71062235     0.87670
C497        C  0.35411778  0.91981974  0.70401207     0.87700
C498        C  0.43245278  0.84638076  0.62775071     0.87870
O499        O  0.42357443  0.12208473  0.37120532    -0.74440
O500        O  0.37916076  0.19739162  0.41638092    -0.74470
O501        O  0.37415704  0.13093432  0.41943629    -0.74520
O502        O  0.43322414  0.18838201  0.36438596    -0.74570
O503        O  0.39213117  0.19001645  0.32451080    -0.74500
O504        O  0.33105793  0.13312932  0.38079382    -0.74480
O505        O  0.33554480  0.19962954  0.37899177    -0.74460
O506        O  0.38094686  0.12428222  0.33245320    -0.74520
Ni507      Ni  0.40415651  0.16052438  0.39406334     1.25410
Ni508      Ni  0.35844994  0.16297495  0.35252804     1.25360
C509        C  0.40732354  0.10897937  0.34644308     0.87740
C510        C  0.34623884  0.20451038  0.40936448     0.87670
C511        C  0.34432886  0.12093398  0.40782666     0.87700
C512        C  0.42530045  0.19314659  0.33325999     0.87870
O513        O  0.11284733  0.82579783  0.39098223    -0.74440
O514        O  0.03729031  0.87917773  0.43240912    -0.74470
O515        O  0.04258615  0.82382006  0.38284561    -0.74520
O516        O  0.10730274  0.87644755  0.43538763    -0.74570
O517        O  0.11189579  0.91472353  0.39396510    -0.74500
O518        O  0.04826697  0.86209575  0.34173504    -0.74480
O519        O  0.04166642  0.91584169  0.39013842    -0.74460
O520        O  0.11871002  0.86435855  0.34964441    -0.74520
Ni521      Ni  0.07390306  0.84980295  0.41187260     1.25410
Ni522      Ni  0.07949300  0.89057212  0.36713875     1.25360
C523        C  0.12886607  0.83721869  0.36441741     0.87740
C524        C  0.03680086  0.90997790  0.42193083     0.87670
C525        C  0.04129007  0.83164794  0.35120669     0.87700
C526        C  0.11988903  0.90410739  0.42336839     0.87870
O527        O  0.80635425  0.04666632  0.18377268    -0.80900
O528        O  0.73068496  0.93872108  0.27518701    -0.65590
O529        O  0.75001380  0.01915579  0.22077513    -1.12190
C530        C  0.80862606  0.05030902  0.32082074     1.05990
O531        O  0.71402677  0.96999203  0.31869214    -0.78800
O532        O  0.70636940  0.03748497  0.30415365    -0.66380
Ni533      Ni  0.77276225  0.01180080  0.17709431     1.34870
C534        C  0.70867278  0.06309327  0.28430165     0.84720
O535        O  0.70615367  0.96337297  0.21182509    -0.79340
O536        O  0.73716943  0.97951300  0.16518180    -0.89610
C537        C  0.72253618  0.94110418  0.30671279     0.84290
O538        O  0.80943001  0.97850001  0.19103211    -0.67820
O539        O  0.77729756  0.04376644  0.33325528    -0.87100
C540        C  0.80770638  0.95357785  0.21169932     0.85120
C541        C  0.70849307  0.96864185  0.17960680     1.06690
H542        H  0.79065536  0.98662209  0.28268016     0.38500
O543        O  0.76885749  0.99975274  0.27939079    -1.09760
O544        O  0.73863457  0.06919072  0.26882514    -0.66420
Ni545      Ni  0.77992852  0.04032646  0.25356628     1.26350
O546        O  0.77989818  0.94983150  0.23100030    -0.66640
O547        O  0.81307149  0.05510914  0.28864425    -0.78940
C548        C  0.79566390  0.07597424  0.19278251     0.84510
O549        O  0.78837433  0.08030767  0.22429835    -0.66110
Ni550      Ni  0.74482810  0.00801585  0.32235914     1.27450
Ni551      Ni  0.73908059  0.97871258  0.24651612     1.26060
H552        H  0.72802361  0.03222034  0.21789290     0.39050
O553        O  0.73359901  0.17453545  0.97124049    -0.80900
O554        O  0.83389800  0.29305053  0.02954690    -0.65590
O555        O  0.75694749  0.22811709  0.01252992    -1.12190
C556        C  0.71684775  0.31484284  0.94226022     1.05990
O557        O  0.80053435  0.34008731  0.02464102    -0.78800
O558        O  0.73085534  0.31169285  0.03927504    -0.66380
Ni559      Ni  0.77443857  0.18426957  0.99819810     1.34870
C560        C  0.70372032  0.29175717  0.03794499     0.84720
O561        O  0.81025935  0.23095496  0.06041709    -0.79340
O562        O  0.81412145  0.18682706  0.02769096    -0.89610
C563        C  0.83103045  0.32557362  0.02919040     0.84290
O564        O  0.80147485  0.20350380  0.95938861    -0.67820
O565        O  0.71622057  0.32744559  0.97187773    -0.87100
C566        C  0.82779773  0.22422425  0.96077864     0.85120
C567        C  0.81068908  0.19866630  0.05752626     1.06690
H568        H  0.79013089  0.28716917  0.96672929     0.38500
O569        O  0.77426192  0.28546531  0.98621556    -1.09760
O570        O  0.69957509  0.27327056  0.01160435    -0.66420
Ni571      Ni  0.73506937  0.25411032  0.97760305     1.26350
O572        O  0.83216111  0.24123184  0.98803167    -0.66640
O573        O  0.71906889  0.28253279  0.93961386    -0.78940
C574        C  0.70196236  0.18734592  0.97015592     0.84510
O575        O  0.69712428  0.21975617  0.97121017    -0.66110
Ni576      Ni  0.75765443  0.32979000  0.99974161     1.27450
Ni577      Ni  0.79574727  0.25948551  0.02181712     1.26060
H578        H  0.74104358  0.22590594  0.03189966     0.39050
C579        C  0.29114992  0.26903037  0.72899990     0.03120
C580        C  0.25896509  0.28573207  0.73869348    -0.13030
C581        C  0.23930710  0.27544512  0.76722525     0.00620
C582        C  0.25235086  0.24878668  0.78684953    -0.11560
C583        C  0.28355595  0.23123377  0.77653191     0.03110
C584        C  0.30307493  0.24102378  0.74748965    -0.10980
H585        H  0.24946898  0.30732358  0.72431688     0.08700
H586        H  0.23831657  0.24158144  0.81018666     0.06230
H587        H  0.32741901  0.22723956  0.73967982     0.06080
C588        C  0.50425261  0.26456552  0.95130114     0.03120
C589        C  0.48940656  0.23302802  0.94553788    -0.13030
C590        C  0.46496091  0.21944903  0.96952271     0.00620
C591        C  0.45537222  0.23820119  0.99833608    -0.11560
C592        C  0.46774274  0.27122569  0.00206858     0.03110
C593        C  0.49149385  0.28470436  0.97798957    -0.10980
H594        H  0.49773557  0.21903992  0.92302969     0.08700
H595        H  0.43773388  0.22724837  0.01769924     0.06230
H596        H  0.50162210  0.31014305  0.98073061     0.06080
C597        C  0.47879709  0.52723106  0.77686039     0.03120
C598        C  0.46398128  0.51776785  0.74605326    -0.13030
C599        C  0.48017289  0.49166847  0.72705914     0.00620
C600        C  0.51015060  0.47436532  0.73919015    -0.11560
C601        C  0.52425472  0.48342862  0.77002053     0.03110
C602        C  0.50965202  0.51065093  0.78823877    -0.10980
H603        H  0.43943519  0.52986148  0.73738482     0.08700
H604        H  0.52083500  0.45223345  0.72585756     0.06230
H605        H  0.52139633  0.51779208  0.81199340     0.06080
C606        C  0.30397715  0.45478318  0.00713900     0.03120
C607        C  0.27210433  0.44501988  0.99205089    -0.13030
C608        C  0.26394126  0.45732590  0.96022204     0.00620
C609        C  0.28630665  0.48006260  0.94355705    -0.11560
C610        C  0.31662960  0.49208387  0.95942904     0.03110
C611        C  0.32613636  0.47886348  0.99101968    -0.10980
H612        H  0.25375482  0.42770247  0.00485204     0.08700
H613        H  0.27803250  0.49080367  0.91962976     0.06230
H614        H  0.34948762  0.48857688  0.00361643     0.06080
O615        O  0.37856358  0.64275267  0.84078412    -0.74440
O616        O  0.31954225  0.70703729  0.89129750    -0.74470
O617        O  0.38126881  0.70816524  0.83923575    -0.74520
O618        O  0.32563813  0.63922330  0.88721018    -0.74570
O619        O  0.36588776  0.63945601  0.92834759    -0.74500
O620        O  0.41912290  0.70888001  0.88156724    -0.74480
O621        O  0.35850395  0.70555440  0.93287079    -0.74460
O622        O  0.41914815  0.64238142  0.88167723    -0.74520
Ni623      Ni  0.34944748  0.67550577  0.86334564     1.25410
Ni624      Ni  0.39197796  0.67514630  0.90766298     1.25360
C625        C  0.40796168  0.63192577  0.85318760     0.87740
C626        C  0.32568103  0.71018529  0.92320198     0.87670
C627        C  0.41384850  0.71257191  0.84954802     0.87700
C628        C  0.33926729  0.62613483  0.91381768     0.87870
O629        O  0.62737159  0.40798921  0.86569456    -0.74440
O630        O  0.69897663  0.36860697  0.92011289    -0.74470
O631        O  0.69567930  0.42143412  0.87038075    -0.74520
O632        O  0.63002249  0.35790624  0.91038462    -0.74570
O633        O  0.64178876  0.32248007  0.86712181    -0.74500
O634        O  0.71124503  0.38420020  0.83036526    -0.74480
O635        O  0.71009118  0.32876354  0.88150329    -0.74460
O636        O  0.64233346  0.37334749  0.82260829    -0.74520
Ni637      Ni  0.66332010  0.39034042  0.89324803     1.25410
Ni638      Ni  0.67798621  0.35082084  0.84893284     1.25360
C639        C  0.62299644  0.39734819  0.83570855     0.87740
C640        C  0.70936349  0.33838536  0.91282484     0.87670
C641        C  0.70704032  0.41520891  0.83989686     0.87700
C642        C  0.62409017  0.33068531  0.89404189     0.87870
O643        O  0.34612316  0.37087025  0.61319948    -0.74440
O644        O  0.39745804  0.42289344  0.54443731    -0.74470
O645        O  0.34517941  0.36486883  0.54762973    -0.74520
O646        O  0.39067491  0.42322467  0.61046352    -0.74570
O647        O  0.43938388  0.38908593  0.61100374    -0.74500
O648        O  0.39099612  0.32844678  0.55097076    -0.74480
O649        O  0.44209681  0.38508263  0.54418759    -0.74460
O650        O  0.39454249  0.33669698  0.61639349    -0.74520
Ni651      Ni  0.36817820  0.39681940  0.57776232     1.25410
Ni652      Ni  0.41853239  0.35852139  0.57980748     1.25360
C653        C  0.36265945  0.34550821  0.62617389     0.87740
C654        C  0.43148210  0.41574022  0.53927579     0.87670
C655        C  0.35687907  0.33395114  0.54656297     0.87700
C656        C  0.42154212  0.41513538  0.62168295     0.87870
O657        O  0.43231751  0.36039740  0.13499572    -0.74440
O658        O  0.38220123  0.41203678  0.20491252    -0.74470
O659        O  0.43964317  0.35800492  0.20158503    -0.74520
O660        O  0.38236051  0.40934152  0.13927912    -0.74570
O661        O  0.33921186  0.37045793  0.14380036    -0.74500
O662        O  0.39875838  0.31746572  0.20303325    -0.74480
O663        O  0.34272525  0.37059000  0.21026203    -0.74460
O664        O  0.38873369  0.32187626  0.13834000    -0.74520
Ni665      Ni  0.41101191  0.38634520  0.17118290     1.25410
Ni666      Ni  0.36583444  0.34373246  0.17504278     1.25360
C667        C  0.41657450  0.33419855  0.12363794     0.87740
C668        C  0.34953639  0.40242093  0.21150863     0.87670
C669        C  0.43209100  0.32629535  0.20502096     0.87700
C670        C  0.35209242  0.39752449  0.13055202     0.87870
O671        O  0.36095216  0.09602574  0.92807941    -0.74440
O672        O  0.31203868  0.03788362  0.86646972    -0.74470
O673        O  0.36291786  0.03020615  0.92211806    -0.74520
O674        O  0.31464969  0.10421310  0.87735391    -0.74570
O675        O  0.36332819  0.10984814  0.84297034    -0.74500
O676        O  0.40536135  0.03083321  0.88133349    -0.74480
O677        O  0.35622168  0.04546988  0.82806331    -0.74460
O678        O  0.40880731  0.09640031  0.89238440    -0.74520
Ni679      Ni  0.33570593  0.06609179  0.89974716     1.25410
Ni680      Ni  0.38508522  0.07001787  0.85976186     1.25360
C681        C  0.39284474  0.10583320  0.92002169     0.87740
C682        C  0.32309227  0.03842848  0.83514542     0.87670
C683        C  0.39587656  0.02445928  0.91224717     0.87700
C684        C  0.33228594  0.11989302  0.85394340     0.87870
O685        O  0.12188603  0.41982973  0.87653491    -0.74440
O686        O  0.04295188  0.36983378  0.84351407    -0.74470
O687        O  0.05280312  0.41901476  0.89408188    -0.74520
O688        O  0.11202974  0.37413190  0.82794307    -0.74570
O689        O  0.12153463  0.33171998  0.86438461    -0.74500
O690        O  0.06464818  0.37940754  0.93245000    -0.74480
O691        O  0.05261882  0.32855916  0.88045854    -0.74460
O692        O  0.13284241  0.37734743  0.91264375    -0.74520
Ni693      Ni  0.08130650  0.39721665  0.85936036     1.25410
Ni694      Ni  0.09247862  0.35265470  0.89917960     1.25360
C695        C  0.14065173  0.40593525  0.89951187     0.87740
C696        C  0.04261879  0.33822842  0.85109715     0.87670
C697        C  0.05587308  0.41016879  0.92510587     0.87700
C698        C  0.12657663  0.34576576  0.83539301     0.87870
C699        C  0.72017137  0.72461713  0.27093345     0.03120
C700        C  0.70270634  0.75211607  0.25561345    -0.13030
C701        C  0.71922806  0.76790972  0.22758013     0.00620
C702        C  0.75263824  0.75604156  0.21508466    -0.11560
C703        C  0.76978481  0.72922135  0.23097504     0.03110
C704        C  0.75447284  0.71439981  0.25957553    -0.10980
H705        H  0.67635548  0.76069991  0.26501663     0.08700
H706        H  0.76451141  0.76660199  0.19201559     0.06230
H707        H  0.76833401  0.69338989  0.27157126     0.06080
O708        O  0.62304891  0.66446957  0.39005555    -0.74440
O709        O  0.56974221  0.61838494  0.46062376    -0.74470
O710        O  0.62906969  0.67190144  0.45469524    -0.74520
O711        O  0.57286166  0.61642370  0.39358521    -0.74570
O712        O  0.61760913  0.57807048  0.39391400    -0.74500
O713        O  0.66816876  0.62945337  0.45884471    -0.74480
O714        O  0.61045113  0.57696418  0.45944345    -0.74460
O715        O  0.66763847  0.62586795  0.39252556    -0.74520
Ni716      Ni  0.59687421  0.64431972  0.42590789     1.25410
Ni717      Ni  0.64245593  0.60125826  0.42727635     1.25360
C718        C  0.65373726  0.65280836  0.38000218     0.87740
C719        C  0.57702061  0.58641407  0.46368715     0.87670
C720        C  0.66206022  0.66173117  0.45980680     0.87700
C721        C  0.58804670  0.58911231  0.38221518     0.87870
C722        C  0.77927512  0.53412474  0.01510970     0.03120
C723        C  0.76461948  0.54986867  0.98712796    -0.13030
C724        C  0.73291125  0.53783329  0.97411109     0.00620
C725        C  0.71563703  0.51006596  0.98880606    -0.11560
C726        C  0.73170574  0.49263964  0.01540725     0.03110
C727        C  0.76371181  0.50494910  0.02858301    -0.10980
H728        H  0.77711902  0.57228209  0.97633110     0.08700
H729        H  0.68953231  0.50266453  0.97978272     0.06230
H730        H  0.77580767  0.49271174  0.05015160     0.06080
C731        C  0.49482643  0.72358206  0.03766686     0.03120
C732        C  0.51440829  0.70575187  0.01274237    -0.13030
C733        C  0.54673812  0.71886548  0.99949383     0.00620
C734        C  0.55983159  0.74915773  0.01239469    -0.11560
C735        C  0.53849826  0.76803795  0.03531571     0.03110
C736        C  0.50567705  0.75546484  0.04730936    -0.10980
H737        H  0.50370262  0.68243786  0.00299018     0.08700
H738        H  0.58571624  0.75869916  0.00342099     0.06230
H739        H  0.48876687  0.77025456  0.06480986     0.06080
C740        C  0.52904327  0.51961794  0.27001733     0.03120
C741        C  0.54307642  0.48925659  0.25622707    -0.13030
C742        C  0.53600327  0.48056858  0.22259509     0.00620
C743        C  0.51264185  0.50116760  0.20407040    -0.11560
C744        C  0.49635010  0.52936934  0.21897746     0.03110
C745        C  0.50573261  0.53960705  0.25106021    -0.10980
H746        H  0.56021878  0.47318852  0.27136643     0.08700
H747        H  0.50635283  0.49512214  0.17815066     0.06230
H748        H  0.49496791  0.56338935  0.26088653     0.06080
O749        O  0.36618392  0.62163382  0.17134180    -0.74440
O750        O  0.28882197  0.67073442  0.13036003    -0.74470
O751        O  0.29610966  0.61452446  0.17810921    -0.74520
O752        O  0.35952262  0.67233691  0.12748693    -0.74570
O753        O  0.35939619  0.63598359  0.08415994    -0.74500
O754        O  0.29917966  0.57615247  0.13704517    -0.74480
O755        O  0.28868747  0.63209511  0.08965317    -0.74460
O756        O  0.36891057  0.58550009  0.12764708    -0.74520
Ni757      Ni  0.32665831  0.64610483  0.15350273     1.25410
Ni758      Ni  0.32807387  0.60602106  0.10803925     1.25360
C759        C  0.38069942  0.59652220  0.15553356     0.87740
C760        C  0.28350809  0.66299271  0.09933259     0.87670
C761        C  0.29515766  0.58327290  0.16872847     0.87700
C762        C  0.37079807  0.66285495  0.09807637     0.87870
O763        O  0.58915659  0.36523665  0.11448432    -0.74440
O764        O  0.64115913  0.29964332  0.05872339    -0.74470
O765        O  0.58481778  0.29898002  0.11218447    -0.74520
O766        O  0.64015974  0.36600126  0.06538064    -0.74570
O767        O  0.68268154  0.36226596  0.10436526    -0.74500
O768        O  0.62633605  0.29521460  0.15137267    -0.74480
O769        O  0.68347639  0.29618316  0.09733944    -0.74460
O770        O  0.63175246  0.36093868  0.15309278    -0.74520
Ni771      Ni  0.61227879  0.33174777  0.08618258     1.25410
Ni772      Ni  0.65765299  0.32747515  0.12786296     1.25360
C773        C  0.60246784  0.37424059  0.14262530     0.87740
C774        C  0.67442735  0.29388117  0.06613286     0.87670
C775        C  0.59300399  0.29331709  0.14314306     0.87700
C776        C  0.66941656  0.37612299  0.07816069     0.87870
O777        O  0.63283298  0.59161217  0.85848182    -0.74440
O778        O  0.57391177  0.64098583  0.79557582    -0.74470
O779        O  0.63287927  0.58698108  0.79295025    -0.74520
O780        O  0.58156917  0.63882374  0.86169060    -0.74570
O781        O  0.62383331  0.67869512  0.85768375    -0.74500
O782        O  0.67376279  0.62703443  0.78776634    -0.74480
O783        O  0.61494324  0.68118616  0.79242175    -0.74460
O784        O  0.67497679  0.63164990  0.85394846    -0.74520
Ni785      Ni  0.60356253  0.61316334  0.82608683     1.25410
Ni786      Ni  0.64834418  0.65612868  0.82151156     1.25360
C787        C  0.66244242  0.60469161  0.86745435     0.87740
C788        C  0.58128099  0.67274925  0.79161933     0.87670
C789        C  0.66632055  0.59508121  0.78746335     0.87700
C790        C  0.59622410  0.66569955  0.87251045     0.87870
O791        O  0.89011224  0.63417869  0.16445683    -0.74440
O792        O  0.96756353  0.59024190  0.11728082    -0.74470
O793        O  0.95993823  0.63858521  0.17006756    -0.74520
O794        O  0.89686994  0.58880802  0.11497756    -0.74570
O795        O  0.89618924  0.63184410  0.07799648    -0.74500
O796        O  0.96318343  0.67975840  0.13171261    -0.74480
O797        O  0.96685055  0.62933687  0.07684103    -0.74460
O798        O  0.89309296  0.67749911  0.12779181    -0.74520
Ni799      Ni  0.92933349  0.61141838  0.14307951     1.25410
Ni800      Ni  0.93085622  0.65626228  0.10205119     1.25360
C801        C  0.87931427  0.66299710  0.15393724     0.87740
C802        C  0.97167396  0.59835454  0.08597177     0.87670
C803        C  0.96420182  0.66999094  0.16282285     0.87700
C804        C  0.88535405  0.60288085  0.08817077     0.87870
O805        O  0.58210468  0.90206226  0.11796300    -0.74440
O806        O  0.64591611  0.95704487  0.16786951    -0.74470
O807        O  0.59277515  0.96791646  0.11698917    -0.74520
O808        O  0.63147417  0.89220011  0.16467853    -0.74570
O809        O  0.67610705  0.88793587  0.12543627    -0.74500
O810        O  0.63180424  0.95929843  0.07396774    -0.74480
O811        O  0.68619013  0.95393453  0.12504076    -0.74460
O812        O  0.62572063  0.89340496  0.07844279    -0.74520
Ni813      Ni  0.61157267  0.93082148  0.14331087     1.25410
Ni814      Ni  0.65672078  0.92415922  0.09920560     1.25360
C815        C  0.59448940  0.88714852  0.09133719     0.87740
C816        C  0.67859163  0.95973370  0.15653992     0.87670
C817        C  0.60074574  0.96999221  0.08508328     0.87700
C818        C  0.66016807  0.87783147  0.15274891     0.87870
O819        O  0.78878620  0.54571196  0.68199362    -0.80900
O820        O  0.71735340  0.44018103  0.78331438    -0.65590
O821        O  0.73608373  0.51760432  0.72419229    -1.12190
C822        C  0.79898973  0.55014851  0.82185597     1.05990
O823        O  0.70061248  0.47394934  0.82512261    -0.78800
O824        O  0.69445367  0.54219411  0.80830829    -0.66380
Ni825      Ni  0.75995990  0.50652668  0.68147611     1.34870
C826        C  0.69714938  0.56750321  0.78801377     0.84720
O827        O  0.69195906  0.46180338  0.71735205    -0.79340
O828        O  0.73054223  0.46781126  0.67433332    -0.89610
C829        C  0.71012554  0.44445551  0.81500638     0.84290
O830        O  0.79945807  0.48056121  0.70149050    -0.67820
O831        O  0.76745840  0.54670731  0.83553919    -0.87100
C832        C  0.79712254  0.45488680  0.72108160     0.85120
C833        C  0.69814477  0.46409075  0.68508736     1.06690
H834        H  0.77723254  0.48763329  0.78738874     0.38500
O835        O  0.75541226  0.50077063  0.78368277    -1.09760
O836        O  0.72667107  0.57113456  0.77083875    -0.66420
Ni837      Ni  0.76665461  0.53972429  0.75592122     1.26350
O838        O  0.76713715  0.44889334  0.73689364    -0.66640
O839        O  0.80190476  0.55434758  0.78946046    -0.78940
C840        C  0.77963514  0.57456137  0.69334993     0.84510
O841        O  0.77466449  0.57821108  0.72529694    -0.66110
Ni842      Ni  0.73259913  0.51171623  0.82674276     1.27450
Ni843      Ni  0.72547328  0.47826191  0.75189018     1.26060
H844        H  0.71441112  0.53064216  0.72054287     0.39050
O845        O  0.96969049  0.04365585  0.57899070    -0.80900
O846        O  0.03853591  0.93598051  0.47843912    -0.65590
O847        O  0.02103244  0.01552137  0.53475262    -1.12190
C848        C  0.95110089  0.04758462  0.43995707     1.05990
O849        O  0.04866529  0.96792257  0.43434277    -0.78800
O850        O  0.05475761  0.03631336  0.44684361    -0.66380
Ni851      Ni  0.00241474  0.00596983  0.57972673     1.34870
C852        C  0.05230511  0.06191320  0.46674679     0.84720
O853        O  0.07056566  0.96246188  0.53973986    -0.79340
O854        O  0.03771000  0.97033107  0.58669170    -0.89610
C855        C  0.03970543  0.93930291  0.44622703     0.84290
O856        O  0.96349181  0.97598185  0.56487305    -0.67820
O857        O  0.98139276  0.04100137  0.42509170    -0.87100
C858        C  0.96536706  0.95041034  0.54490083     0.85120
C859        C  0.06887909  0.96729892  0.57215065     1.06690
H860        H  0.97597583  0.98214730  0.47649066     0.38500
O861        O  0.99732970  0.99591514  0.47789225    -1.09760
O862        O  0.02428726  0.06577220  0.48592455    -0.66420
Ni863      Ni  0.98655531  0.03568775  0.50466164     1.26350
O864        O  0.99423434  0.94521551  0.52706147    -0.66640
O865        O  0.94894310  0.04989570  0.47258557    -0.78940
C866        C  0.97715460  0.07244109  0.56641123     0.84510
O867        O  0.97940518  0.07516516  0.53423362    -0.66110
Ni868      Ni  0.01620885  0.00547818  0.43289915     1.27450
Ni869      Ni  0.03188836  0.97562335  0.50800251     1.26060
H870        H  0.04231700  0.02930147  0.53610374     0.39050
C871        C  0.49001582  0.03965644  0.72001838     0.03120
C872        C  0.50805993  0.01242165  0.70465101    -0.13030
C873        C  0.53888633  0.99872244  0.71900497     0.00620
C874        C  0.55195920  0.01243753  0.74881567    -0.11560
C875        C  0.53401426  0.04005095  0.76427953     0.03110
C876        C  0.50252571  0.05317282  0.75009801    -0.10980
H877        H  0.49835146  0.00216718  0.68115985     0.08700
H878        H  0.57625007  0.00190502  0.75965010     0.06230
H879        H  0.48820108  0.07433326  0.76196416     0.06080
C880        C  0.71578405  0.01460516  0.53436132     0.03120
C881        C  0.74906370  0.02592860  0.54454097    -0.13030
C882        C  0.76296322  0.05610654  0.53210222     0.00620
C883        C  0.74484702  0.07370381  0.50681501    -0.11560
C884        C  0.71298401  0.06067113  0.49398340     0.03110
C885        C  0.69745938  0.03200958  0.50919750    -0.10980
H886        H  0.76445928  0.01096158  0.56228797     0.08700
H887        H  0.75651370  0.09635862  0.49601458     0.06230
H888        H  0.67232257  0.02212868  0.50009460     0.06080
C889        C  0.54407117  0.21850730  0.48068781     0.03120
C890        C  0.55770296  0.24969624  0.49020293    -0.13030
C891        C  0.54517258  0.26469973  0.52002107     0.00620
C892        C  0.51767297  0.25003212  0.53936732    -0.11560
C893        C  0.50253184  0.22019486  0.52849920     0.03110
C894        C  0.51663857  0.20347552  0.50002613    -0.10980
H895        H  0.57816155  0.26222459  0.47468436     0.08700
H896        H  0.50733754  0.26238666  0.56224547     0.06230
H897        H  0.50545857  0.17949945  0.49242432     0.06080
O898        O  0.62505038  0.17388286  0.34430000    -0.74440
O899        O  0.68298414  0.12067827  0.28241681    -0.74470
O900        O  0.62278439  0.17113575  0.27863089    -0.74520
O901        O  0.67742386  0.12897310  0.34909052    -0.74570
O902        O  0.63709294  0.08746210  0.35264823    -0.74500
O903        O  0.58337599  0.12950528  0.28132754    -0.74480
O904        O  0.64386956  0.07884104  0.28712651    -0.74460
O905        O  0.58427626  0.13260761  0.34787793    -0.74520
Ni906      Ni  0.65366398  0.15002545  0.31228252     1.25410
Ni907      Ni  0.61062858  0.10545603  0.31615281     1.25360
C908        C  0.59696251  0.16067869  0.35791066     0.87740
C909        C  0.67686410  0.08861009  0.28268269     0.87670
C910        C  0.58980869  0.16121166  0.27617682     0.87700
C911        C  0.66453972  0.10270681  0.36384228     0.87870
O912        O  0.36098455  0.13156871  0.66714878    -0.74440
O913        O  0.29355223  0.18668666  0.61838556    -0.74470
O914        O  0.29021041  0.13116755  0.66697819    -0.74520
O915        O  0.36418634  0.18197732  0.62247921    -0.74570
O916        O  0.36460005  0.14499850  0.57951520    -0.74500
O917        O  0.29395820  0.09175252  0.62713930    -0.74480
O918        O  0.29462084  0.14879194  0.57702186    -0.74460
O919        O  0.36427639  0.09476297  0.62408071    -0.74520
Ni920      Ni  0.32619746  0.15924347  0.64531178     1.25410
Ni921      Ni  0.32821059  0.11865829  0.60026751     1.25360
C922        C  0.37461136  0.10516841  0.65279885     0.87740
C923        C  0.29123585  0.18001499  0.58663155     0.87670
C924        C  0.28882650  0.09971601  0.65855104     0.87700
C925        C  0.37707031  0.17089265  0.59426261     0.87870
C926        C  0.72874966  0.27538148  0.72989984     0.03120
C927        C  0.75527161  0.25617858  0.71323909    -0.13030
C928        C  0.76395491  0.22429607  0.72535374     0.00620
C929        C  0.74621168  0.21155123  0.75388143    -0.11560
C930        C  0.72069279  0.23178167  0.77114258     0.03110
C931        C  0.71197659  0.26389119  0.75945328    -0.10980
H932        H  0.76803393  0.26548450  0.69001100     0.08700
H933        H  0.75239414  0.18617451  0.76275528     0.06230
H934        H  0.69125140  0.27918859  0.77229379     0.06080
O935        O  0.68421642  0.39085784  0.62410943    -0.74440
O936        O  0.62655685  0.45257089  0.57213341    -0.74470
O937        O  0.67924334  0.45696400  0.62701919    -0.74520
O938        O  0.63720335  0.38761247  0.57461208    -0.74570
O939        O  0.58995970  0.38628807  0.61130754    -0.74500
O940        O  0.63682942  0.45069645  0.66722458    -0.74480
O941        O  0.58454659  0.45224795  0.61324118    -0.74460
O942        O  0.63705860  0.38571200  0.66051835    -0.74520
Ni943      Ni  0.65856930  0.42319037  0.59802311     1.25410
Ni944      Ni  0.61031227  0.41951067  0.63949675     1.25360
C945        C  0.66856035  0.37701869  0.64974435     0.87740
C946        C  0.59294324  0.45473161  0.58153119     0.87670
C947        C  0.66961399  0.45792801  0.65869115     0.87700
C948        C  0.60703420  0.37550364  0.58477243     0.87870
O949        O  0.59381985  0.87479414  0.62388343    -0.74440
O950        O  0.65093844  0.80933550  0.57287894    -0.74470
O951        O  0.59358561  0.80817550  0.62640559    -0.74520
O952        O  0.64479137  0.87509124  0.57511303    -0.74570
O953        O  0.68823678  0.87448356  0.61331649    -0.74500
O954        O  0.63230865  0.81182071  0.66786411    -0.74480
O955        O  0.69077987  0.80748107  0.61370032    -0.74460
O956        O  0.63755867  0.87735509  0.66171385    -0.74520
Ni957      Ni  0.61922980  0.84078990  0.59819071     1.25410
Ni958      Ni  0.66391977  0.84166739  0.64058818     1.25360
C959        C  0.60764901  0.88789684  0.65008896     0.87740
C960        C  0.68381709  0.80438536  0.58197606     0.87670
C961        C  0.59996486  0.80580422  0.65831112     0.87700
C962        C  0.67383117  0.88678029  0.58679258     0.87870
O963        O  0.89419562  0.13685103  0.66621417    -0.74440
O964        O  0.97462986  0.09574383  0.62190064    -0.74470
O965        O  0.96298615  0.14634867  0.67259268    -0.74520
O966        O  0.90389365  0.09045249  0.61878137    -0.74570
O967        O  0.90170237  0.13116595  0.57940560    -0.74500
O968        O  0.96325404  0.18605231  0.63269560    -0.74480
O969        O  0.97206719  0.13291661  0.57999828    -0.74460
O970        O  0.89353464  0.17798207  0.62705056    -0.74520
Ni971      Ni  0.93486900  0.11586542  0.64628077     1.25410
Ni972      Ni  0.93377159  0.15873793  0.60319076     1.25360
C973        C  0.88058467  0.16365707  0.65368706     0.87740
C974        C  0.97717793  0.10227261  0.59017644     0.87670
C975        C  0.96481908  0.17778070  0.66424960     0.87700
C976        C  0.89106869  0.10294742  0.59165887     0.87870
O977        O  0.62911346  0.17307612  0.89683159    -0.74440
O978        O  0.58823610  0.11432328  0.96366937    -0.74470
O979        O  0.63863545  0.17086423  0.96185740    -0.74520
O980        O  0.58276003  0.12246428  0.89723193    -0.74570
O981        O  0.62838532  0.08549254  0.88885683    -0.74500
O982        O  0.68187875  0.13181970  0.95560014    -0.74480
O983        O  0.63216561  0.07632452  0.95486821    -0.74460
O984        O  0.67514146  0.13615316  0.88998216    -0.74520
Ni985      Ni  0.60789997  0.14634245  0.93113020     1.25410
Ni986      Ni  0.65613828  0.10604298  0.92279262     1.25360
C987        C  0.65892567  0.16380111  0.88257108     0.87740
C988        C  0.59925444  0.08329571  0.96338047     0.87670
C989        C  0.67224215  0.16233942  0.96321435     0.87700
C990        C  0.59727261  0.09733002  0.88138779     0.87870
C991        C  0.04287836  0.77602453  0.54372560     0.03120
C992        C  0.00724137  0.77086217  0.55462648    -0.13030
C993        C  0.98999189  0.74138129  0.54553104     0.00620
C994        C  0.00724856  0.71864600  0.52329546    -0.11560
C995        C  0.04161157  0.72540917  0.51042209     0.03110
C996        C  0.06023912  0.75342713  0.52136650    -0.10980
H997        H  0.99366882  0.78902374  0.57135065     0.08700
H998        H  0.99391876  0.69574308  0.51551497     0.06230
H999        H  0.08761349  0.75790531  0.51206005     0.06080
O1000       O  0.13448082  0.57997444  0.38447839    -0.74440
O1001       O  0.07339508  0.62206226  0.31935962    -0.74470
O1002       O  0.13386358  0.57254983  0.31920687    -0.74520
O1003       O  0.07962156  0.62431261  0.38609744    -0.74570
O1004       O  0.11884515  0.66673158  0.38039981    -0.74500
O1005       O  0.17047767  0.61613354  0.31208926    -0.74480
O1006       O  0.11113870  0.66524375  0.31469030    -0.74460
O1007       O  0.17311414  0.62272096  0.37807724    -0.74520
Ni1008     Ni  0.10362280  0.59820468  0.35160112     1.25410
Ni1009     Ni  0.14473062  0.64416910  0.34519867     1.25360
C1010       C  0.16351958  0.59499014  0.39200063     0.87740
C1011       C  0.07918789  0.65342470  0.31189929     0.87670
C1012       C  0.16529231  0.58388575  0.31090240     0.87700
C1013       C  0.09187748  0.65283545  0.39529860     0.87870
C1014       C  0.26223614  0.71945539  0.72881346     0.03120
C1015       C  0.25892627  0.75233583  0.71655571    -0.13030
C1016       C  0.23257673  0.77391691  0.73023751     0.00620
C1017       C  0.21177359  0.76428433  0.75857193    -0.11560
C1018       C  0.21653163  0.73173292  0.77147547     0.03110
C1019       C  0.24014604  0.70880524  0.75546695    -0.10980
H1020       H  0.27575326  0.76084312  0.69533936     0.08700
H1021       H  0.19165170  0.78139867  0.76975548     0.06230
H1022       H  0.24159396  0.68279822  0.76424050     0.06080
C1023       C  0.26029476  0.53284382  0.55474537     0.03120
C1024       C  0.25475144  0.54491664  0.52221636    -0.13030
C1025       C  0.22840581  0.53071713  0.50253381     0.00620
C1026       C  0.20932583  0.50273009  0.51462839    -0.11560
C1027       C  0.21673372  0.48911757  0.54636813     0.03110
C1028       C  0.24097798  0.50537563  0.56720200    -0.10980
H1029       H  0.27082246  0.56566864  0.51230831     0.08700
H1030       H  0.18878822  0.49152577  0.49938398     0.06230
H1031       H  0.24572546  0.49615000  0.59257612     0.06080
O1032       O  0.39519358  0.62574296  0.67787616    -0.74440
O1033       O  0.47212826  0.58410205  0.62656571    -0.74470
O1034       O  0.46549604  0.63493764  0.67975239    -0.74520
O1035       O  0.40154647  0.57873598  0.63094330    -0.74570
O1036       O  0.39537148  0.61932989  0.59185030    -0.74500
O1037       O  0.46306043  0.67323730  0.63860994    -0.74480
O1038       O  0.46593097  0.62178888  0.58541649    -0.74460
O1039       O  0.39279403  0.66646480  0.63863215    -0.74520
Ni1040     Ni  0.43488305  0.60442416  0.65525544     1.25410
Ni1041     Ni  0.43025640  0.64682353  0.61210989     1.25360
C1042       C  0.38000553  0.65180561  0.66502217     0.87740
C1043       C  0.47289286  0.59136720  0.59468769     0.87670
C1044       C  0.46763877  0.66593665  0.67011660     0.87700
C1045       C  0.38594033  0.59118901  0.60526514     0.87870
C1046       C  0.00776645  0.48059874  0.73152994     0.03120
C1047       C  0.02969319  0.49915318  0.75287334    -0.13030
C1048       C  0.01594491  0.52813446  0.76911158     0.00620
C1049       C  0.98133115  0.53970050  0.76235780    -0.11560
C1050       C  0.96189689  0.52393268  0.73765875     0.03110
C1051       C  0.97367658  0.49342661  0.72363148    -0.10980
H1052       H  0.05738247  0.49119868  0.75689376     0.08700
H1053       H  0.97044637  0.56253610  0.77421057     0.06230
H1054       H  0.95734373  0.48116835  0.70500426     0.06080
O1055       O  0.16103890  0.36335338  0.62808957    -0.74440
O1056       O  0.11164212  0.29755862  0.68261783    -0.74470
O1057       O  0.17112363  0.29779526  0.63035695    -0.74520
O1058       O  0.10826150  0.36281532  0.67533299    -0.74570
O1059       O  0.06715823  0.35703629  0.63548483    -0.74500
O1060       O  0.12964920  0.29178626  0.59141532    -0.74480
O1061       O  0.07138582  0.29122940  0.64273296    -0.74460
O1062       O  0.12011274  0.35780123  0.58802523    -0.74520
Ni1063     Ni  0.13965805  0.32964373  0.65566063     1.25410
Ni1064     Ni  0.09573150  0.32336490  0.61292410     1.25360
C1065       C  0.14786357  0.37209629  0.59975593     0.87740
C1066       C  0.07876497  0.29183594  0.67437756     0.87670
C1067       C  0.16318779  0.29108882  0.59955040     0.87700
C1068       C  0.07788794  0.37077116  0.66260646     0.87870
O1069       O  0.85413084  0.63690632  0.68025386    -0.74440
O1070       O  0.78737781  0.68710898  0.62628351    -0.74470
O1071       O  0.78379729  0.63427097  0.67842872    -0.74520
O1072       O  0.85682267  0.68600495  0.63347473    -0.74570
O1073       O  0.86133734  0.64781604  0.59176109    -0.74500
O1074       O  0.78966226  0.59563527  0.63766391    -0.74480
O1075       O  0.79089958  0.64629673  0.58767525    -0.74460
O1076       O  0.86006680  0.59888345  0.63830114    -0.74520
Ni1077     Ni  0.81943802  0.66262863  0.65619227     1.25410
Ni1078     Ni  0.82503061  0.62071249  0.61234610     1.25360
C1079       C  0.86789630  0.60979070  0.66744712     0.87740
C1080       C  0.78669907  0.67760975  0.59509886     0.87670
C1081       C  0.78244782  0.60331042  0.66874234     0.87700
C1082       C  0.87067329  0.67557948  0.60535859     0.87870
O1083       O  0.14370349  0.89725662  0.58781605    -0.74440
O1084       O  0.19537174  0.96760640  0.63257064    -0.74470
O1085       O  0.19728230  0.90091564  0.63116122    -0.74520
O1086       O  0.13490544  0.96231779  0.58309173    -0.74570
O1087       O  0.09683032  0.96304018  0.62723455    -0.74500
O1088       O  0.15668532  0.90005532  0.67428749    -0.74480
O1089       O  0.15570684  0.96603945  0.67558015    -0.74460
O1090       O  0.10322719  0.89744982  0.63092967    -0.74520
Ni1091     Ni  0.16942529  0.93324048  0.60701206     1.25410
Ni1092     Ni  0.12662954  0.93258351  0.65353364     1.25360
C1093       C  0.11559275  0.88541288  0.60289444     0.87740
C1094       C  0.18843852  0.97052383  0.66476782     0.87670
C1095       C  0.18576015  0.88926116  0.65961471     0.87700
C1096       C  0.10205253  0.96495042  0.59492477     0.87870
O1097       O  0.12043159  0.66708162  0.88895607    -0.74440
O1098       O  0.07424423  0.61499494  0.95817669    -0.74470
O1099       O  0.12963784  0.66702031  0.95384910    -0.74520
O1100       O  0.07162652  0.61852049  0.89126862    -0.74570
O1101       O  0.11738486  0.58145642  0.88397096    -0.74500
O1102       O  0.16955888  0.62457704  0.95204050    -0.74480
O1103       O  0.11458221  0.57358082  0.94943066    -0.74460
O1104       O  0.16647232  0.62981874  0.88593558    -0.74520
Ni1105     Ni  0.09732873  0.64324086  0.92413253     1.25410
Ni1106     Ni  0.14369315  0.60083153  0.91845176     1.25360
C1107       C  0.15087031  0.65727603  0.87654549     0.87740
C1108       C  0.08225998  0.58328709  0.95814488     0.87670
C1109       C  0.16228029  0.65604400  0.95707318     0.87700
C1110       C  0.08630890  0.59276161  0.87643560     0.87870
C1111       C  0.73730377  0.27738903  0.25943461     0.03120
C1112       C  0.75770981  0.29263174  0.23370497    -0.13030
C1113       C  0.79020339  0.27772207  0.22242586     0.00620
C1114       C  0.80181695  0.24708736  0.23637196    -0.11560
C1115       C  0.78137154  0.23231629  0.26255145     0.03110
C1116       C  0.74810220  0.24628715  0.27239259    -0.10980
H1117       H  0.74967714  0.31718190  0.22404511     0.08700
H1118       H  0.82800362  0.23637621  0.22900831     0.06230
H1119       H  0.73278199  0.23526883  0.29340288     0.06080
O1120       O  0.60914695  0.42139018  0.37565185    -0.74440
O1121       O  0.54851315  0.37004896  0.31694441    -0.74470
O1122       O  0.53854573  0.41915011  0.37206655    -0.74520
O1123       O  0.61770918  0.37689304  0.32499963    -0.74570
O1124       O  0.61518695  0.33378404  0.36182176    -0.74500
O1125       O  0.53937558  0.37984452  0.41209516    -0.74480
O1126       O  0.54491831  0.33029680  0.35662523    -0.74460
O1127       O  0.60922325  0.37835947  0.41224696    -0.74520
Ni1128     Ni  0.57761964  0.39851307  0.34598053     1.25410
Ni1129     Ni  0.57618905  0.35387020  0.38696643     1.25360
C1130       C  0.61963969  0.40771634  0.40324284     0.87580
C1131       C  0.54417896  0.33870870  0.32506121     0.87670
C1132       C  0.53488254  0.41102738  0.40356092     0.87700
C1133       C  0.62915593  0.34842457  0.33578821     0.87870
C1134       C  0.76948883  0.47733239  0.52156142     0.03120
C1135       C  0.79137915  0.49922213  0.50256870    -0.13030
C1136       C  0.77917154  0.51254806  0.47221389     0.00620
C1137       C  0.74773097  0.49990325  0.45852364    -0.11560
C1138       C  0.72553442  0.47812135  0.47742285     0.03110
C1139       C  0.73568346  0.46854095  0.50991472    -0.10980
H1140       H  0.81748467  0.50652067  0.51175421     0.08700
H1141       H  0.74059700  0.50728610  0.43321373     0.06230
H1142       H  0.71809784  0.45285088  0.52554089     0.06080
C1143       C  0.97363604  0.50720217  0.29084363     0.03120
C1144       C  0.99901656  0.48993298  0.31036097    -0.13030
C1145       C  0.02141168  0.46506122  0.29558495     0.00620
C1146       C  0.01662014  0.45566045  0.26202383    -0.11560
C1147       C  0.98800147  0.46905959  0.24401218     0.03110
C1148       C  0.96775398  0.49619494  0.25778759    -0.10980
H1149       H  0.00200443  0.49652460  0.33674485     0.08700
H1150       H  0.03451794  0.43687787  0.25025572     0.06230
H1151       H  0.94766145  0.50878366  0.24274258     0.06080
C1152       C  0.95301730  0.30932797  0.50912251     0.03120
C1153       C  0.98873060  0.31433213  0.49793212    -0.13030
C1154       C  0.00569056  0.29062850  0.47629359     0.00620
C1155       C  0.98590498  0.26353139  0.46474494    -0.11560
C1156       C  0.94953054  0.26069549  0.47340554     0.03110
C1157       C  0.93267764  0.28349787  0.49539941    -0.10980
H1158       H  0.00360492  0.33540632  0.50770161     0.08700
H1159       H  0.99886123  0.24380078  0.44946373     0.06230
H1160       H  0.90509533  0.27925050  0.50428772     0.06080
O1161       O  0.14705372  0.40516749  0.38841317    -0.74440
O1162       O  0.22059050  0.35466694  0.43355520    -0.74470
O1163       O  0.21725103  0.41117860  0.38324792    -0.74520
O1164       O  0.15049306  0.35465289  0.43329489    -0.74570
O1165       O  0.15308248  0.31690070  0.39127976    -0.74500
O1166       O  0.22023179  0.37243059  0.34268232    -0.74480
O1167       O  0.22339907  0.31725780  0.39191757    -0.74460
O1168       O  0.14949592  0.36734199  0.34639541    -0.74520
Ni1169     Ni  0.18488671  0.38291740  0.41122678     1.25410
Ni1170     Ni  0.18757122  0.34221369  0.36644753     1.25360
C1171       C  0.13549420  0.39371746  0.36055610     0.87740
C1172       C  0.22477756  0.32362415  0.42380762     0.87670
C1173       C  0.22199685  0.40371702  0.35162159     0.87700
C1174       C  0.14023152  0.32706899  0.41984223     0.87870
O1175       O  0.91553908  0.39227123  0.64565388    -0.74440
O1176       O  0.86150693  0.43969201  0.71530978    -0.74470
O1177       O  0.92138014  0.38918690  0.71160807    -0.74520
O1178       O  0.86168455  0.43712804  0.64927526    -0.74570
O1179       O  0.82111327  0.39584668  0.65324839    -0.74500
O1180       O  0.88282431  0.34666283  0.71307759    -0.74480
O1181       O  0.82310036  0.39750584  0.71965225    -0.74460
O1182       O  0.87491676  0.35084095  0.64777119    -0.74520
Ni1183     Ni  0.89160599  0.41608643  0.68141462     1.25410
Ni1184     Ni  0.84903908  0.37115094  0.68458400     1.25360
C1185       C  0.90280062  0.36477667  0.63430691     0.87740
C1186       C  0.82897981  0.42948390  0.72123931     0.87670
C1187       C  0.91547671  0.35720147  0.71536163     0.87700
C1188       C  0.83233548  0.42357592  0.64022767     0.87870
O1189       O  0.85581196  0.37640600  0.11057975    -0.74440
O1190       O  0.91060935  0.43059060  0.04807983    -0.74470
O1191       O  0.85474749  0.38006351  0.04397175    -0.74520
O1192       O  0.90625309  0.42349022  0.11346985    -0.74570
O1193       O  0.94990121  0.38395412  0.10914528    -0.74500
O1194       O  0.89479826  0.33770971  0.04192379    -0.74480
O1195       O  0.95178389  0.38954030  0.04260831    -0.74460
O1196       O  0.89923979  0.33646570  0.10782633    -0.74520
Ni1197     Ni  0.88025301  0.40407083  0.07829345     1.25410
Ni1198     Ni  0.92561395  0.36044758  0.07429379     1.25360
C1199       C  0.86944172  0.34817998  0.12018068     0.87740
C1200       C  0.94370399  0.42135959  0.04257954     0.87670
C1201       C  0.86220019  0.34872323  0.03775907     0.87700
C1202       C  0.93617982  0.41078468  0.12284679     0.87870
O1203       O  0.86840152  0.63973108  0.41985222    -0.74440
O1204       O  0.92277525  0.70822121  0.37247790    -0.74470
O1205       O  0.86313884  0.70558575  0.42468962    -0.74520
O1206       O  0.92130744  0.64135297  0.37312013    -0.74570
O1207       O  0.88009299  0.64121926  0.33303248    -0.74500
O1208       O  0.82332220  0.70757074  0.38384541    -0.74480
O1209       O  0.88336852  0.70750792  0.33133159    -0.74460
O1210       O  0.82704315  0.64079412  0.37966415    -0.74520
Ni1211     Ni  0.89539082  0.67476350  0.39898782     1.25410
Ni1212     Ni  0.85190689  0.67545016  0.35549169     1.25360
C1213       C  0.84002991  0.62811500  0.40658633     0.87740
C1214       C  0.91622662  0.71157191  0.34070311     0.87670
C1215       C  0.83014062  0.71025204  0.41568254     0.87700
C1216       C  0.90899599  0.62925576  0.34577886     0.87870
O1217       O  0.87139351  0.12921822  0.34121798    -0.74440
O1218       O  0.92705384  0.06224831  0.38560385    -0.74470
O1219       O  0.87068210  0.06376036  0.33541059    -0.74520
O1220       O  0.92088178  0.12934516  0.38747460    -0.74570
O1221       O  0.87681622  0.12670879  0.42736981    -0.74500
O1222       O  0.83058330  0.05813277  0.37761174    -0.74480
O1223       O  0.88717509  0.06097682  0.42854263    -0.74460
O1224       O  0.82688144  0.12466523  0.38046652    -0.74520
Ni1225     Ni  0.89927350  0.09529138  0.36101982     1.25410
Ni1226     Ni  0.85385769  0.09150356  0.40502363     1.25360
C1227       C  0.84070961  0.13824573  0.35369789     0.87740
C1228       C  0.91992010  0.05675714  0.41717996     0.87670
C1229       C  0.83838542  0.05682930  0.34565890     0.87700
C1230       C  0.90500492  0.14025295  0.41456071     0.87870
O1231       O  0.04826588  0.32428681  0.79293965    -0.80900
O1232       O  0.96916406  0.23546954  0.68805365    -0.65590
O1233       O  0.99209153  0.28849312  0.76763074    -1.12190
C1234       C  0.05791695  0.18602366  0.79310283     1.05990
O1235       O  0.95390876  0.19481233  0.72223915    -0.78800
O1236       O  0.95637524  0.19845322  0.79181279    -0.66380
Ni1237     Ni  0.01401129  0.33162178  0.75876810     1.34870
C1238       C  0.95802510  0.21981563  0.81626714     0.84720
O1239       O  0.94436509  0.30019896  0.71541712    -0.79340
O1240       O  0.97799321  0.34514561  0.72648129    -0.89610
C1241       C  0.96330442  0.20397189  0.69245027     0.84290
O1242       O  0.05052816  0.31444031  0.72585419    -0.67820
O1243       O  0.03040342  0.17203846  0.78064347    -0.87100
C1244       C  0.04796751  0.29398156  0.70104645     0.85120
C1245       C  0.94726374  0.33248353  0.72025161     1.06690
H1246       H  0.03243585  0.22699294  0.73191693     0.38500
O1247       O  0.01105842  0.22978211  0.74639366    -1.09760
O1248       O  0.98468113  0.23975059  0.81756213    -0.66420
Ni1249     Ni  0.02388432  0.25427437  0.78646817     1.26350
O1250       O  0.01855722  0.27833454  0.69676648    -0.66640
O1251       O  0.05834791  0.21810868  0.79986775    -0.78940
C1252       C  0.03980087  0.31371181  0.82236933     0.84510
O1253       O  0.03380244  0.28221420  0.82603017    -0.66110
Ni1254     Ni  0.99047059  0.18600041  0.75377129     1.27450
Ni1255     Ni  0.97911492  0.26380367  0.72771338     1.26060
H1256       H  0.97093815  0.29181975  0.78212729     0.39050
C1257       C  0.99493221  0.23680195  0.03806240     0.03120
C1258       C  0.01307870  0.22491733  0.00960983    -0.13030
C1259       C  0.03232070  0.24687783  0.98850608     0.00620
C1260       C  0.03793230  0.28015890  0.99949031    -0.11560
C1261       C  0.02306257  0.29058327  0.03106398     0.03110
C1262       C  0.99865624  0.26984468  0.04861679    -0.10980
H1263       H  0.01051045  0.19835245  0.00319131     0.08700
H1264       H  0.05534951  0.29692970  0.98501780     0.06230
H1265       H  0.98542385  0.27828015  0.07203501     0.06080
O1266       O  0.09260312  0.39687479  0.13337156    -0.74440
O1267       O  0.15303040  0.45612027  0.18352820    -0.74470
O1268       O  0.09641351  0.46282663  0.13291738    -0.74520
O1269       O  0.14417830  0.39103876  0.17895368    -0.74570
O1270       O  0.18641609  0.38846168  0.13759346    -0.74500
O1271       O  0.13659320  0.45947345  0.09038695    -0.74480
O1272       O  0.19453253  0.45463107  0.14192984    -0.74460
O1273       O  0.13459301  0.39403011  0.09153851    -0.74520
Ni1274     Ni  0.12016591  0.42773520  0.15871101     1.25410
Ni1275     Ni  0.16487946  0.42507782  0.11390633     1.25360
C1276       C  0.10396247  0.38567091  0.10459369     0.87740
C1277       C  0.18651209  0.45821544  0.17387321     0.87670
C1278       C  0.10370201  0.46503241  0.10086967     0.87700
C1279       C  0.17214894  0.37704879  0.16510193     0.87870
C1280       C  0.02560406  0.97214585  0.24382486     0.03120
C1281       C  0.99453588  0.98436641  0.22855578    -0.13030
C1282       C  0.98296553  0.01761592  0.23443756     0.00620
C1283       C  0.00274991  0.03809413  0.25580560    -0.11560
C1284       C  0.03119111  0.02437211  0.27392249     0.03110
C1285       C  0.04277941  0.99124697  0.26787454    -0.10980
H1286       H  0.98099008  0.96873555  0.21041130     0.08700
H1287       H  0.99614655  0.06475172  0.25864318     0.06230
H1288       H  0.06584695  0.98069280  0.28075539     0.06080
C1289       C  0.21238795  0.24532469  0.21216637     0.03120
C1290       C  0.23659790  0.22487268  0.19320305    -0.13030
C1291       C  0.24826339  0.19381368  0.20630600     0.00620
C1292       C  0.23258324  0.18121350  0.23610242    -0.11560
C1293       C  0.20838726  0.20146011  0.25454529     0.03110
C1294       C  0.19990987  0.23390106  0.24373392    -0.10980
H1295       H  0.24846226  0.23401436  0.16960566     0.08700
H1296       H  0.24127759  0.15697375  0.24619936     0.06230
H1297       H  0.18424983  0.25035417  0.26063733     0.06080
O1298       O  0.12101012  0.08553781  0.39447510    -0.74440
O1299       O  0.16844208  0.13948012  0.46023245    -0.74470
O1300       O  0.11484277  0.08289010  0.46045414    -0.74520
O1301       O  0.16803394  0.13538177  0.39467025    -0.74570
O1302       O  0.12219035  0.17289963  0.39383584    -0.74500
O1303       O  0.07044427  0.12113822  0.46117203    -0.74480
O1304       O  0.12284387  0.17643712  0.45998480    -0.74460
O1305       O  0.07533025  0.12310057  0.39456891    -0.74520
Ni1306     Ni  0.14476244  0.10939050  0.42869656     1.25410
Ni1307     Ni  0.09602247  0.14978424  0.42838149     1.25360
C1308       C  0.09122392  0.09654914  0.38281801     0.87740
C1309       C  0.15689616  0.17037434  0.46317183     0.87670
C1310       C  0.08078320  0.09002626  0.46445992     0.87700
C1311       C  0.15247344  0.16137801  0.38219501     0.87870
C1312       C  0.20031522  0.04341506  0.01635225     0.03120
C1313       C  0.18645103  0.01192073  0.02558444    -0.13030
C1314       C  0.19539445  0.99732992  0.05649062     0.00620
C1315       C  0.21919891  0.01379305  0.07755580    -0.11560
C1316       C  0.23435957  0.04427614  0.06720995     0.03110
C1317       C  0.22298144  0.06027836  0.03782594    -0.10980
H1318       H  0.16973726  0.99834883  0.00818633     0.08700
H1319       H  0.22869479  0.00132411  0.10018303     0.06230
H1320       H  0.23490051  0.08408062  0.02995995     0.06080
O1321       O  0.38900922  0.06754921  0.13304388    -0.74440
O1322       O  0.46798926  0.11554772  0.16946637    -0.74470
O1323       O  0.39727609  0.11877635  0.17390745    -0.74520
O1324       O  0.45914948  0.05820361  0.12253015    -0.74570
O1325       O  0.45726173  0.09231596  0.07790898    -0.74500
O1326       O  0.39709882  0.15405542  0.12949878    -0.74480
O1327       O  0.46794839  0.14934487  0.12462352    -0.74460
O1328       O  0.38819051  0.10273749  0.08860695    -0.74520
Ni1329     Ni  0.42963398  0.08850003  0.15123339     1.25410
Ni1330     Ni  0.42885151  0.12591459  0.10346663     1.25360
C1331       C  0.37444248  0.07892809  0.10637115     0.87740
C1332       C  0.47291380  0.14510343  0.15659666     0.87670
C1333       C  0.38465412  0.14455588  0.15842455     0.87700
C1334       C  0.46043276  0.06217746  0.08997965     0.87870
O1335       O  0.12632495  0.17122211  0.87401841    -0.74440
O1336       O  0.17426648  0.11742289  0.80719013    -0.74470
O1337       O  0.12015537  0.17156149  0.80875633    -0.74520
O1338       O  0.17398128  0.12100910  0.87464514    -0.74570
O1339       O  0.12809264  0.08492742  0.87848392    -0.74500
O1340       O  0.07973212  0.13066811  0.80838433    -0.74480
O1341       O  0.13348253  0.07686555  0.81277673    -0.74460
O1342       O  0.08013952  0.13561246  0.87545679    -0.74520
Ni1343     Ni  0.15051397  0.14646666  0.84005331     1.25410
Ni1344     Ni  0.10369817  0.10556798  0.84308431     1.25360
C1345       C  0.09552916  0.16252570  0.88585774     0.87740
C1346       C  0.16594766  0.08601982  0.80497572     0.87670
C1347       C  0.08782336  0.16180340  0.80319007     0.87700
C1348       C  0.15723380  0.09677004  0.88963550     0.87870
O1349       O  0.07311151  0.85404412  0.14154238    -0.74440
O1350       O  0.12584455  0.78935522  0.08465776    -0.74470
O1351       O  0.07052159  0.78707911  0.14121299    -0.74520
O1352       O  0.12007806  0.85519679  0.08967664    -0.74570
O1353       O  0.16645092  0.85265354  0.12453231    -0.74500
O1354       O  0.11255109  0.78873461  0.17989556    -0.74480
O1355       O  0.16795915  0.78533833  0.12313630    -0.74460
O1356       O  0.11977406  0.85410277  0.17630107    -0.74520
Ni1357     Ni  0.09569127  0.82034463  0.11288490     1.25410
Ni1358     Ni  0.14346656  0.81896929  0.15221173     1.25360
C1359       C  0.08937531  0.86573265  0.16718004     0.87740
C1360       C  0.15931146  0.78375278  0.09179085     0.87670
C1361       C  0.07889630  0.78489989  0.17261279     0.87700
C1362       C  0.14999072  0.86644915  0.09976054     0.87870
O1363       O  0.79599998  0.09449536  0.13489508    -0.74440
O1364       O  0.87670102  0.12391850  0.08103806    -0.74470
O1365       O  0.86516176  0.07942840  0.13104631    -0.74520
O1366       O  0.80849060  0.14215149  0.08057082    -0.74570
O1367       O  0.81817035  0.18305146  0.11767145    -0.74500
O1368       O  0.87389315  0.11960787  0.16965489    -0.74480
O1369       O  0.88593311  0.16374928  0.12015272    -0.74460
O1370       O  0.80491395  0.13411776  0.17322146    -0.74520
Ni1371     Ni  0.83539290  0.10863249  0.10550575     1.25410
Ni1372     Ni  0.84519277  0.15190681  0.14663669     1.25360
C1373       C  0.79591936  0.10368481  0.16615253     0.87740
C1374       C  0.89433827  0.14872619  0.09243049     0.87670
C1375       C  0.87915866  0.08952272  0.15836184     0.87700
C1376       C  0.81131214  0.17390525  0.08716881     0.87870
C1377       C  0.26989924  0.05240706  0.07904931    -0.00170
C1378       C  0.29844762  0.04980570  0.05509220    -0.12040
C1379       C  0.33314287  0.05781256  0.06363347     0.02070
C1380       C  0.33980616  0.06635400  0.09723929    -0.00250
C1381       C  0.31174362  0.06712655  0.12191251    -0.11980
C1382       C  0.27643795  0.06063312  0.11285370     0.01950
H1383       H  0.29339222  0.04201060  0.02940584     0.14930
H1384       H  0.31714453  0.07459787  0.14770025     0.14930
C1385       C  0.24745343  0.06402821  0.13791238     0.36590
C1386       C  0.36091985  0.05852694  0.03725941     0.36490
N1387       N  0.22423496  0.06692011  0.15799985    -0.43760
N1388       N  0.38286561  0.06000349  0.01590741    -0.43750
C1389       C  0.18365658  0.96303477  0.06484926    -0.00170
C1390       C  0.20983183  0.93911305  0.07438297    -0.12040
C1391       C  0.19969211  0.90692970  0.08481524     0.02070
C1392       C  0.16316282  0.89786695  0.08447535    -0.00250
C1393       C  0.13721728  0.92127912  0.07315581    -0.11980
C1394       C  0.14703972  0.95394461  0.06400981     0.01950
H1395       H  0.23817197  0.94584817  0.07443069     0.14930
H1396       H  0.10878397  0.91485451  0.07357855     0.14930
C1397       C  0.11881820  0.97816244  0.05625280     0.36590
C1398       C  0.22689031  0.88396758  0.09667581     0.36490
N1399       N  0.09624475  0.99759687  0.05010103    -0.43760
N1400       N  0.24782278  0.86482855  0.10672718    -0.43750
C1401       C  0.16903913  0.08380642  0.92200031    -0.00170
C1402       C  0.20593765  0.08044042  0.92810959    -0.12040
C1403       C  0.21725116  0.06747619  0.95897266     0.02070
C1404       C  0.19103791  0.05831568  0.98397899    -0.00250
C1405       C  0.15435469  0.06269257  0.97811776    -0.11980
C1406       C  0.14305372  0.07535578  0.94754216     0.01950
H1407       H  0.22577410  0.08717393  0.90856014     0.14930
H1408       H  0.13440718  0.05617397  0.99768364     0.14930
C1409       C  0.10454143  0.08011649  0.94378651     0.36590
C1410       C  0.25557301  0.06275412  0.96351524     0.36490
N1411       N  0.07367001  0.08361382  0.94098655    -0.43760
N1412       N  0.28646039  0.05933319  0.96629413    -0.43750
C1413       C  0.16741367  0.17556644  0.35134350    -0.00170
C1414       C  0.14364710  0.17929782  0.32460591    -0.12040
C1415       C  0.15695081  0.18591828  0.29223225     0.02070
C1416       C  0.19424334  0.19053171  0.28706517    -0.00250
C1417       C  0.21805681  0.18745948  0.31376398    -0.11980
C1418       C  0.20489217  0.17933544  0.34595214     0.01950
H1419       H  0.11495632  0.17474348  0.32857676     0.14930
H1420       H  0.24680533  0.19127707  0.30933436     0.14930
C1421       C  0.23022710  0.17440719  0.37265736     0.36590
C1422       C  0.13241156  0.18540447  0.26441886     0.36490
N1423       N  0.25072541  0.17002289  0.39383157    -0.43760
N1424       N  0.11280209  0.18427740  0.24214306    -0.43750
C1425       C  0.28235677  0.17917552  0.19380568    -0.00170
C1426       C  0.31034515  0.17558783  0.21693843    -0.12040
C1427       C  0.34472147  0.16535233  0.20597465     0.02070
C1428       C  0.35145376  0.16001423  0.17124733    -0.00250
C1429       C  0.32348472  0.16347630  0.14815145    -0.11980
C1430       C  0.28878095  0.17239254  0.15927952     0.01950
H1431       H  0.30542689  0.18121393  0.24357517     0.14930
H1432       H  0.32832718  0.15744916  0.12158021     0.14930
C1433       C  0.26004764  0.17299952  0.13524721     0.36590
C1434       C  0.37238345  0.16034735  0.23064579     0.36490
N1435       N  0.23701171  0.17328497  0.11601984    -0.43760
N1436       N  0.39443613  0.15590217  0.25042549    -0.43750
C1437       C  0.07546052  0.07876755  0.35484225    -0.00170
C1438       C  0.09884314  0.06430931  0.33018210    -0.12040
C1439       C  0.08502350  0.04768013  0.30252582     0.02070
C1440       C  0.04732957  0.04424701  0.30042957    -0.00250
C1441       C  0.02401211  0.05911942  0.32487036    -0.11980
C1442       C  0.03776555  0.07706555  0.35159322     0.01950
H1443       H  0.12789122  0.06683627  0.33204738     0.14930
H1444       H  0.99500299  0.05642238  0.32324187     0.14930
C1445       C  0.01284179  0.09347262  0.37526822     0.36590
C1446       C  0.10980919  0.03563899  0.27614042     0.36490
N1447       N  0.99379194  0.10748972  0.39443515    -0.43760
N1448       N  0.12958819  0.02608969  0.25491058    -0.43750
C1449       C  0.90151906  0.06640621  0.17766525    -0.00170
C1450       C  0.90150025  0.07064842  0.21282091    -0.12040
C1451       C  0.92667682  0.05367272  0.23209881     0.02070
C1452       C  0.95235766  0.03190225  0.21604824    -0.00250
C1453       C  0.95039900  0.02559785  0.18116839    -0.11980
C1454       C  0.92503350  0.04253334  0.16183767     0.01950
H1455       H  0.88271171  0.08838974  0.22511245     0.14930
H1456       H  0.97008299  0.00901269  0.16853965     0.14930
C1457       C  0.92570012  0.03674660  0.12569538     0.36590
C1458       C  0.92726547  0.06099645  0.26780540     0.36490
N1459       N  0.92621051  0.03203453  0.09676432    -0.43760
N1460       N  0.92971977  0.06755879  0.29614044    -0.43750
C1461       C  0.04416715  0.94320084  0.22882906    -0.00170
C1462       C  0.07609255  0.94930108  0.21006658    -0.12040
C1463       C  0.09118934  0.92421655  0.18938647     0.02070
C1464       C  0.07351668  0.89305792  0.18702551    -0.00250
C1465       C  0.04259190  0.88663983  0.20690278    -0.11980
C1466       C  0.02785734  0.91148566  0.22820908     0.01950
H1467       H  0.08838269  0.97408963  0.21061944     0.14930
H1468       H  0.03071047  0.86208448  0.20610814     0.14930
C1469       C  0.99663130  0.90435285  0.24969087     0.36590
C1470       C  0.12423851  0.93130942  0.17048623     0.36490
N1471       N  0.97183377  0.89918957  0.26738414    -0.43760
N1472       N  0.15086683  0.93734576  0.15576376    -0.43750
C1473       C  0.18562628  0.34561447  0.17993191    -0.00170
C1474       C  0.16085273  0.32709012  0.19959439    -0.12040
C1475       C  0.16790133  0.29374545  0.20794083     0.02070
C1476       C  0.20261245  0.27967951  0.20086116    -0.00250
C1477       C  0.22868910  0.29931272  0.18353543    -0.11980
C1478       C  0.21990491  0.33152731  0.17172870     0.01950
H1479       H  0.13431021  0.33760877  0.20603575     0.14930
H1480       H  0.25578300  0.28944463  0.17856235     0.14930
C1481       C  0.24588674  0.34891330  0.15038680     0.36590
C1482       C  0.13770246  0.27440781  0.22108963     0.36490
N1483       N  0.26581474  0.36299524  0.13243987    -0.43760
N1484       N  0.11292702  0.25969642  0.23147782    -0.43750
C1485       C  0.08145565  0.36246623  0.08645374    -0.00170
C1486       C  0.06694665  0.37235874  0.05539554    -0.12040
C1487       C  0.04549371  0.34998453  0.03759948     0.02070
C1488       C  0.04039170  0.31714553  0.05023609    -0.00250
C1489       C  0.05439472  0.30781428  0.08155399    -0.11980
C1490       C  0.07390579  0.33046292  0.10010863     0.01950
H1491       H  0.07173218  0.39755402  0.04554266     0.14930
H1492       H  0.05052085  0.28241109  0.09142338     0.14930
C1493       C  0.08609664  0.31975081  0.13279801     0.36590
C1494       C  0.02687977  0.36128320  0.00797800     0.36490
N1495       N  0.09474751  0.31026950  0.15908044    -0.43760
N1496       N  0.01054966  0.36953822  0.98474650    -0.43750
C1497       C  0.07822033  0.18530913  0.91094798    -0.00170
C1498       C  0.09888846  0.21198293  0.92369773    -0.12040
C1499       C  0.08433690  0.23429394  0.94781052     0.02070
C1500       C  0.04736360  0.23229939  0.95677572    -0.00250
C1501       C  0.02591576  0.20821416  0.94069813    -0.11980
C1502       C  0.04188164  0.18237133  0.92162208     0.01950
H1503       H  0.12729268  0.21421278  0.91659674     0.14930
H1504       H  0.99734266  0.20641953  0.94744573     0.14930
C1505       C  0.02193450  0.15142980  0.91828616     0.36590
C1506       C  0.10873196  0.25636044  0.96489328     0.36490
N1507       N  0.00610795  0.12643731  0.91654089    -0.43760
N1508       N  0.12848149  0.27379055  0.97864772    -0.43750
C1509       C  0.96897781  0.21456029  0.05346905    -0.00170
C1510       C  0.98158377  0.18763756  0.07318884    -0.12040
C1511       C  0.95806203  0.16215165  0.08306312     0.02070
C1512       C  0.92231195  0.16372217  0.07228390    -0.00250
C1513       C  0.91066708  0.18924332  0.05054677    -0.11980
C1514       C  0.93363159  0.21517326  0.04152631     0.01950
H1515       H  0.00961330  0.18656942  0.08053765     0.14930
H1516       H  0.88285432  0.19037082  0.04285023     0.14930
C1517       C  0.92060753  0.24221962  0.02015130     0.36590
C1518       C  0.97045181  0.13512176  0.10472404     0.36490
N1519       N  0.91056558  0.26411336  0.00317907    -0.43760
N1520       N  0.98017591  0.11325844  0.12191126    -0.43750
C1521       C  0.94052478  0.32455798  0.54086753    -0.00170
C1522       C  0.93207955  0.30244712  0.56769534    -0.12040
C1523       C  0.92102123  0.31496721  0.59907733     0.02070
C1524       C  0.91893597  0.35021074  0.60379134    -0.00250
C1525       C  0.92876809  0.37237084  0.57738989    -0.11980
C1526       C  0.93936041  0.35974793  0.54577000     0.01950
H1527       H  0.93428563  0.27524634  0.56408630     0.14930
H1528       H  0.92662325  0.39955802  0.58103385     0.14930
C1529       C  0.94745039  0.38316505  0.51856166     0.36590
C1530       C  0.91231688  0.29118070  0.62587446     0.36490
N1531       N  0.95394893  0.40188994  0.49672840    -0.43760
N1532       N  0.90523049  0.27200992  0.64716415    -0.43750
C1533       C  0.91663650  0.17086155  0.42996784    -0.00170
C1534       C  0.90100546  0.20120813  0.41887592    -0.12040
C1535       C  0.90892468  0.23142811  0.43477770     0.02070
C1536       C  0.93168077  0.23058698  0.46259888    -0.00250
C1537       C  0.94536910  0.19994369  0.47486905    -0.11980
C1538       C  0.93863390  0.17012370  0.45813914     0.01950
H1539       H  0.88311350  0.20126401  0.39759258     0.14930
H1540       H  0.96379711  0.19982238  0.49580174     0.14930
C1541       C  0.95696911  0.13989135  0.46867073     0.36590
C1542       C  0.89535964  0.26290010  0.42110790     0.36490
N1543       N  0.97304072  0.11633287  0.47717188    -0.43760
N1544       N  0.88457910  0.28812524  0.41008563    -0.43750
C1545       C  0.04354768  0.29379939  0.46469231    -0.00170
C1546       C  0.05233459  0.28491292  0.43098562    -0.12040
C1547       C  0.08660452  0.29012753  0.41743266     0.02070
C1548       C  0.11136077  0.30822531  0.43657188    -0.00250
C1549       C  0.10430954  0.31381459  0.47119541    -0.11980
C1550       C  0.07090417  0.30560591  0.48573758     0.01950
H1551       H  0.03212540  0.27497238  0.41446917     0.14930
H1552       H  0.12432591  0.32586668  0.48653789     0.14930
C1553       C  0.06560917  0.30966537  0.52188954     0.36590
C1554       C  0.09463906  0.27780604  0.38355137     0.36490
N1555       N  0.06120520  0.31292907  0.55083565    -0.43760
N1556       N  0.10116608  0.26711989  0.35676374    -0.43750
C1557       C  0.95622320  0.53850097  0.30412358    -0.00170
C1558       C  0.97769135  0.56101810  0.32194923    -0.12040
C1559       C  0.96310722  0.59060607  0.33587259     0.02070
C1560       C  0.92688331  0.59966032  0.32979013    -0.00250
C1561       C  0.90577469  0.57792120  0.31064872    -0.11980
C1562       C  0.91955695  0.54689641  0.29905780     0.01950
H1563       H  0.00601824  0.55522893  0.32564515     0.14930
H1564       H  0.87773338  0.58426813  0.30626216     0.14930
C1565       C  0.89475538  0.52350281  0.28435676     0.36590
C1566       C  0.98569141  0.61001828  0.35747283     0.36490
N1567       N  0.87473901  0.50481827  0.27270359    -0.43760
N1568       N  0.00355733  0.62480753  0.37569050    -0.43750
C1569       C  0.95390945  0.42652993  0.15110043    -0.00170
C1570       C  0.96702187  0.40515118  0.17620804    -0.12040
C1571       C  0.97742547  0.41831403  0.20697679     0.02070
C1572       C  0.97860230  0.45390143  0.21142462    -0.00250
C1573       C  0.96760698  0.47528787  0.18520430    -0.11980
C1574       C  0.95332422  0.46191730  0.15602971     0.01950
H1575       H  0.96572842  0.37788799  0.17307989     0.14930
H1576       H  0.96818649  0.50255465  0.18823677     0.14930
C1577       C  0.93538312  0.48495779  0.13342247     0.36590
C1578       C  0.98228684  0.39449119  0.23432675     0.36490
N1579       N  0.91977411  0.50345495  0.11623551    -0.43760
N1580       N  0.98540201  0.37485138  0.25585347    -0.43750
C1581       C  0.04925405  0.44750522  0.31491372    -0.00170
C1582       C  0.05121022  0.41214958  0.31256047    -0.12040
C1583       C  0.07944383  0.39407992  0.32658567     0.02070
C1584       C  0.10564874  0.41150184  0.34468328    -0.00250
C1585       C  0.10298386  0.44678385  0.34835534    -0.11980
C1586       C  0.07522170  0.46498281  0.33331219     0.01950
H1587       H  0.03087733  0.39859770  0.29906161     0.14930
H1588       H  0.12320906  0.46027217  0.36221339     0.14930
C1589       C  0.07483567  0.50139839  0.33621265     0.36590
C1590       C  0.08050161  0.35784723  0.32181509     0.36490
N1591       N  0.07418813  0.53055915  0.33886859    -0.43760
N1592       N  0.08107251  0.32892450  0.31725741    -0.43750
C1593       C  0.81238370  0.43872227  0.61270007    -0.00170
C1594       C  0.79575169  0.41661276  0.59042340    -0.12040
C1595       C  0.78177538  0.42854331  0.56037942     0.02070
C1596       C  0.78218397  0.46360395  0.55354810    -0.00250
C1597       C  0.79714533  0.48592327  0.57668399    -0.11980
C1598       C  0.81327661  0.47370947  0.60565496     0.01950
H1599       H  0.79616953  0.38953457  0.59517463     0.14930
H1600       H  0.79753945  0.51285542  0.57139233     0.14930
C1601       C  0.83214271  0.49737240  0.62643244     0.36590
C1602       C  0.77068424  0.40389145  0.53585575     0.36490
N1603       N  0.84805314  0.51617290  0.64258211    -0.43760
N1604       N  0.76237841  0.38376842  0.51637970    -0.43750
C1605       C  0.82308690  0.59900405  0.42246821    -0.00170
C1606       C  0.81962236  0.59866607  0.45774939    -0.12040
C1607       C  0.80609643  0.57051311  0.47462387     0.02070
C1608       C  0.79723598  0.54141555  0.45587712    -0.00250
C1609       C  0.80157014  0.54163946  0.42044671    -0.11980
C1610       C  0.81346976  0.57049867  0.40354620     0.01950
H1611       H  0.82674623  0.62086095  0.47210293     0.14930
H1612       H  0.79491823  0.51944676  0.40585012     0.14930
C1613       C  0.81553185  0.57001395  0.36697824     0.36590
C1614       C  0.79991127  0.57324155  0.51082332     0.36490
N1615       N  0.81636632  0.56945508  0.33767628    -0.43760
N1616       N  0.79513164  0.57576287  0.53980251    -0.43750
C1617       C  0.69439819  0.46201507  0.46187724    -0.00170
C1618       C  0.68976528  0.42726974  0.46739353    -0.12040
C1619       C  0.66426635  0.40933909  0.45006113     0.02070
C1620       C  0.64376928  0.42609278  0.42523831    -0.00250
C1621       C  0.64672671  0.46123939  0.42111485    -0.11980
C1622       C  0.67136587  0.47938795  0.43964109     0.01950
H1623       H  0.70708387  0.41352362  0.48441823     0.14930
H1624       H  0.62994459  0.47460058  0.40323608     0.14930
C1625       C  0.67286493  0.51555689  0.43493349     0.36590
C1626       C  0.66077316  0.37378143  0.45818197     0.36490
N1627       N  0.67545338  0.54444420  0.43100386    -0.43760
N1628       N  0.65785292  0.34548619  0.46529397    -0.43750
C1629       C  0.79739339  0.20774264  0.28539533    -0.00170
C1630       C  0.77679740  0.17969839  0.29546864    -0.12040
C1631       C  0.78859269  0.15847402  0.32107774     0.02070
C1632       C  0.82200321  0.16449399  0.33555312    -0.00250
C1633       C  0.84209006  0.19292502  0.32631509    -0.11980
C1634       C  0.82971803  0.21508934  0.30194119     0.01950
H1635       H  0.75117975  0.17487183  0.28377321     0.14930
H1636       H  0.86795496  0.19736168  0.33771500     0.14930
C1637       C  0.84997496  0.24564930  0.29565975     0.36590
C1638       C  0.76658688  0.13047003  0.33174535     0.36490
N1639       N  0.86625353  0.27010416  0.29086670    -0.43760
N1640       N  0.74904505  0.10819371  0.34113036    -0.43750
C1641       C  0.70968885  0.29682903  0.27816763    -0.00170
C1642       C  0.71266616  0.29880445  0.31349272    -0.12040
C1643       C  0.68668321  0.31580641  0.33297604     0.02070
C1644       C  0.65779704  0.33167459  0.31675860    -0.00250
C1645       C  0.65558374  0.33122678  0.28142331    -0.11980
C1646       C  0.68142370  0.31383794  0.26195186     0.01950
H1647       H  0.73543295  0.28703050  0.32590045     0.14930
H1648       H  0.63322585  0.34383737  0.26913409     0.14930
C1649       C  0.67851544  0.31381397  0.22566369     0.36590
C1650       C  0.69081904  0.31732344  0.36921792     0.36490
N1651       N  0.67753788  0.31414787  0.19644901    -0.43760
N1652       N  0.69432280  0.31841494  0.39821331    -0.43750
C1653       C  0.81314642  0.29552821  0.19783327    -0.00170
C1654       C  0.82661825  0.27756152  0.16956177    -0.12040
C1655       C  0.84619606  0.29410306  0.14417270     0.02070
C1656       C  0.85091083  0.32930011  0.14656645    -0.00250
C1657       C  0.83866204  0.34706634  0.17528068    -0.11980
C1658       C  0.82074350  0.33028969  0.20147127     0.01950
H1659       H  0.82132683  0.25073581  0.16707531     0.14930
H1660       H  0.84391075  0.37393836  0.17755219     0.14930
C1661       C  0.81165541  0.34909303  0.23200957     0.36590
C1662       C  0.86067986  0.27459459  0.11590887     0.36490
N1663       N  0.80448042  0.36429578  0.25637310    -0.43760
N1664       N  0.87291869  0.25896108  0.09354402    -0.43750
C1665       C  0.89216163  0.58950474  0.68665092    -0.00170
C1666       C  0.87727861  0.56504131  0.70837401    -0.12040
C1667       C  0.89959053  0.54281523  0.72545386     0.02070
C1668       C  0.93688398  0.54470303  0.71947552    -0.00250
C1669       C  0.95180223  0.56848427  0.69684900    -0.11980
C1670       C  0.92949550  0.59105688  0.68025877     0.01950
H1671       H  0.84833328  0.56332463  0.71202756     0.14930
H1672       H  0.98087894  0.56947966  0.69250349     0.14930
C1673       C  0.94510660  0.61504909  0.65651051     0.36590
C1674       C  0.88405194  0.51891144  0.74922853     0.36490
N1675       N  0.95739770  0.63422517  0.63736728    -0.43760
N1676       N  0.87176045  0.49983866  0.76846120    -0.43750
C1677       C  0.02187179  0.44977698  0.71499299    -0.00170
C1678       C  0.01638400  0.44541604  0.68024609    -0.12040
C1679       C  0.03199282  0.41813155  0.66290154     0.02070
C1680       C  0.05525796  0.39594981  0.68016908    -0.00250
C1681       C  0.05898007  0.39910589  0.71523351    -0.11980
C1682       C  0.04188558  0.42533962  0.73289051     0.01950
H1683       H  0.00080067  0.46387853  0.66624346     0.14930
H1684       H  0.07566992  0.38121384  0.72889850     0.14930
C1685       C  0.04559319  0.42661741  0.76918505     0.36590
C1686       C  0.02409479  0.41422780  0.62752899     0.36490
N1687       N  0.04877926  0.42805906  0.79820133    -0.43760
N1688       N  0.01682040  0.41097962  0.59942753    -0.43750
C1689       C  0.03673238  0.54540308  0.79449920    -0.00170
C1690       C  0.05267762  0.52545670  0.81939732    -0.12040
C1691       C  0.06938435  0.54044246  0.84629882     0.02070
C1692       C  0.06812732  0.57599739  0.84946616    -0.00250
C1693       C  0.05295670  0.59609762  0.82430277    -0.11980
C1694       C  0.03837665  0.58108403  0.79611921     0.01950
H1695       H  0.05172082  0.49805712  0.81808423     0.14930
H1696       H  0.05403680  0.62349856  0.82593616     0.14930
C1697       C  0.02690801  0.60271823  0.76876604     0.36590
C1698       C  0.08806350  0.51867980  0.86969927     0.36490
N1699       N  0.01790424  0.62014405  0.74688472    -0.43760
N1700       N  0.10376104  0.50118587  0.88782981    -0.43750
C1701       C  0.28952493  0.54696154  0.57357382    -0.00170
C1702       C  0.31906033  0.52579307  0.58047264    -0.12040
C1703       C  0.35125366  0.53957886  0.59084208     0.02070
C1704       C  0.35392104  0.57494472  0.59338267    -0.00250
C1705       C  0.32375394  0.59582493  0.58810210    -0.11980
C1706       C  0.29130768  0.58205639  0.57884571     0.01950
H1707       H  0.31751751  0.49875268  0.57614016     0.14930
H1708       H  0.32539603  0.62289063  0.59176722     0.14930
C1709       C  0.26038794  0.60428917  0.57462639     0.36590
C1710       C  0.38128266  0.51717019  0.59750882     0.36490
N1711       N  0.23564794  0.62213360  0.57142904    -0.43760
N1712       N  0.40523784  0.49916553  0.60319863    -0.43750
C1713       C  0.19976330  0.45753172  0.55730460    -0.00170
C1714       C  0.16269969  0.45325225  0.55219103    -0.12040
C1715       C  0.14548575  0.42394068  0.56309489     0.02070
C1716       C  0.16521781  0.39952696  0.58119135    -0.00250
C1717       C  0.20239915  0.40315955  0.58490910    -0.11980
C1718       C  0.22009609  0.43129891  0.57224524     0.01950
H1719       H  0.14698115  0.47304152  0.54018909     0.14930
H1720       H  0.21758111  0.38406265  0.59825060     0.14930
C1721       C  0.25903523  0.43202714  0.57447672     0.36590
C1722       C  0.10768916  0.42019538  0.55604606     0.36490
N1723       N  0.29018919  0.43235281  0.57638841    -0.43760
N1724       N  0.07761020  0.41714375  0.54956710    -0.43750
C1725       C  0.34686494  0.66491376  0.68039293    -0.00170
C1726       C  0.34144095  0.66071607  0.71527264    -0.12040
C1727       C  0.31332603  0.67763410  0.73207130     0.02070
C1728       C  0.28850885  0.69651042  0.71295717    -0.00250
C1729       C  0.29115226  0.69660848  0.67755526    -0.11980
C1730       C  0.32084430  0.68209845  0.66108465     0.01950
H1731       H  0.36042560  0.64593068  0.72966996     0.14930
H1732       H  0.27117268  0.71010264  0.66288020     0.14930
C1733       C  0.32412575  0.68644991  0.62475306     0.36590
C1734       C  0.31273608  0.67746255  0.76868745     0.36490
N1735       N  0.32668444  0.69057260  0.59575982    -0.43760
N1736       N  0.31239314  0.67725014  0.79799997    -0.43750
C1737       C  0.19743100  0.72008658  0.80157117    -0.00170
C1738       C  0.21877139  0.70849566  0.82807841    -0.12040
C1739       C  0.20434024  0.68711564  0.85259225     0.02070
C1740       C  0.16767589  0.67866350  0.85125938    -0.00250
C1741       C  0.14567938  0.69228647  0.82616751    -0.11980
C1742       C  0.16050503  0.71256205  0.80082091     0.01950
H1743       H  0.24741991  0.71412139  0.82803370     0.14930
H1744       H  0.11730094  0.68573939  0.82550992     0.14930
C1745       C  0.13829436  0.72273106  0.77296225     0.36590
C1746       C  0.22777735  0.67363157  0.87810616     0.36490
N1747       N  0.12051995  0.73068938  0.75057444    -0.43760
N1748       N  0.24662788  0.66248393  0.89829792    -0.43750
C1749       C  0.20408012  0.86086987  0.67472199    -0.00170
C1750       C  0.21871694  0.86474053  0.70675253    -0.12040
C1751       C  0.22947064  0.83651723  0.72509736     0.02070
C1752       C  0.22400043  0.80432691  0.71159556    -0.00250
C1753       C  0.21078172  0.80043873  0.67898844    -0.11980
C1754       C  0.20113204  0.82860457  0.66020790     0.01950
H1755       H  0.22106138  0.88953041  0.71766948     0.14930
H1756       H  0.20736208  0.77530165  0.66856499     0.14930
C1757       C  0.18641511  0.82359079  0.62709051     0.36590
C1758       C  0.24709029  0.84077126  0.75691360     0.36490
N1759       N  0.17489920  0.81922673  0.60053013    -0.43760
N1760       N  0.26202554  0.84348504  0.78208609    -0.43750
C1761       C  0.18602655  0.58003695  0.41734737    -0.00170
C1762       C  0.19349029  0.54528942  0.41537346    -0.12040
C1763       C  0.21048671  0.52890477  0.44176921     0.02070
C1764       C  0.21835766  0.54740685  0.47107722    -0.00250
C1765       C  0.21329608  0.58270262  0.47169738    -0.11980
C1766       C  0.19795872  0.59930147  0.44463018     0.01950
H1767       H  0.18550878  0.53095345  0.39343916     0.14930
H1768       H  0.21960096  0.59719279  0.49403687     0.14930
C1769       C  0.19281312  0.63561050  0.44650144     0.36590
C1770       C  0.21929753  0.49332694  0.43832842     0.36490
N1771       N  0.18903555  0.66471642  0.44793983    -0.43760
N1772       N  0.22638333  0.46480177  0.43589290    -0.43750
C1773       C  0.07668922  0.66916916  0.42502814    -0.00170
C1774       C  0.09473831  0.66456253  0.45541140    -0.12040
C1775       C  0.08414996  0.68308087  0.48399002     0.02070
C1776       C  0.05501362  0.70595809  0.48174641    -0.00250
C1777       C  0.03654304  0.70993281  0.45160255    -0.11980
C1778       C  0.04726124  0.69167287  0.42315168     0.01950
H1779       H  0.11723678  0.64680146  0.45660811     0.14930
H1780       H  0.01378673  0.72750861  0.45037972     0.14930
C1781       C  0.02747965  0.69652712  0.39274635     0.36590
C1782       C  0.10304464  0.67812516  0.51513398     0.36490
N1783       N  0.01043960  0.70057405  0.36902136    -0.43760
N1784       N  0.11817433  0.67419732  0.54011592    -0.43750
C1785       C  0.89798079  0.69621609  0.58898860    -0.00170
C1786       C  0.92090120  0.71391281  0.61002791    -0.12040
C1787       C  0.95023921  0.73102299  0.59641127     0.02070
C1788       C  0.95530554  0.73221448  0.56089736    -0.00250
C1789       C  0.92989616  0.71776348  0.53981312    -0.11980
C1790       C  0.90225702  0.69833488  0.55350895     0.01950
H1791       H  0.91759598  0.71213224  0.63737965     0.14930
H1792       H  0.93374743  0.71898949  0.51248105     0.14930
C1793       C  0.88086975  0.67918186  0.53048761     0.36590
C1794       C  0.97632905  0.74353906  0.61971953     0.36490
N1795       N  0.86480874  0.66339532  0.51153697    -0.43760
N1796       N  0.99688274  0.75321623  0.63889352    -0.43750
C1797       C  0.09720139  0.85731261  0.58790338    -0.00170
C1798       C  0.09613735  0.85537199  0.55247360    -0.12040
C1799       C  0.07860547  0.82871290  0.53734463     0.02070
C1800       C  0.06239447  0.80389312  0.55792961    -0.00250
C1801       C  0.06407704  0.80549209  0.59315679    -0.11980
C1802       C  0.08117985  0.83206451  0.60842398     0.01950
H1803       H  0.10847916  0.87484405  0.53674072     0.14930
H1804       H  0.05219509  0.78569839  0.60871759     0.14930
C1805       C  0.08289282  0.83194595  0.64497228     0.36590
C1806       C  0.07677316  0.82718915  0.50097123     0.36490
N1807       N  0.08414240  0.83178681  0.67422461    -0.43760
N1808       N  0.07473856  0.82428907  0.47197350    -0.43750
C1809       C  0.68579926  0.35008731  0.66761497    -0.00170
C1810       C  0.72050710  0.35479459  0.67988987    -0.12040
C1811       C  0.73466740  0.33103719  0.70201005     0.02070
C1812       C  0.71347817  0.30338428  0.71193516    -0.00250
C1813       C  0.67921936  0.29853410  0.69919629    -0.11980
C1814       C  0.66538926  0.32141842  0.67656127     0.01950
H1815       H  0.73588354  0.37706442  0.67288867     0.14930
H1816       H  0.66403312  0.27601009  0.70580419     0.14930
C1817       C  0.63062110  0.31453844  0.66228539     0.36590
C1818       C  0.77096390  0.33404652  0.71393206     0.36490
N1819       N  0.60286443  0.30896423  0.65084481    -0.43760
N1820       N  0.79990594  0.33377525  0.72423567    -0.43750
C1821       C  0.70351912  0.21889392  0.80150117    -0.00170
C1822       C  0.72618490  0.20745788  0.82684406    -0.12040
C1823       C  0.71201181  0.18990319  0.85417607     0.02070
C1824       C  0.67448770  0.18494557  0.85662834    -0.00250
C1825       C  0.65144230  0.19836368  0.83239049    -0.11980
C1826       C  0.66582571  0.21491866  0.80428533     0.01950
H1827       H  0.75520967  0.21097165  0.82439614     0.14930
H1828       H  0.62253975  0.19404286  0.83435856     0.14930
C1829       C  0.64189339  0.22506238  0.77768984     0.36590
C1830       C  0.73672934  0.17660121  0.87856248     0.36490
N1831       N  0.62270289  0.23308230  0.75638178    -0.43760
N1832       N  0.75706569  0.16583315  0.89758665    -0.43750
C1833       C  0.84998457  0.17823489  0.67125260    -0.00170
C1834       C  0.85194130  0.18107559  0.70641241    -0.12040
C1835       C  0.82320859  0.19470171  0.72502045     0.02070
C1836       C  0.79207154  0.20499465  0.70797122    -0.00250
C1837       C  0.78959371  0.20077303  0.67286662    -0.11980
C1838       C  0.81869529  0.18767378  0.65418670     0.01950
H1839       H  0.87636538  0.17344870  0.71917855     0.14930
H1840       H  0.76530622  0.20867888  0.66006824     0.14930
C1841       C  0.81572102  0.18364613  0.61798495     0.36590
C1842       C  0.82721569  0.19955834  0.76099740     0.36490
N1843       N  0.81350785  0.18039660  0.58899586    -0.43760
N1844       N  0.83042727  0.20332926  0.78980642    -0.43750
C1845       C  0.40782340  0.18704960  0.57884029    -0.00170
C1846       C  0.40726381  0.19335176  0.54406966    -0.12040
C1847       C  0.43800092  0.20468114  0.52719005     0.02070
C1848       C  0.46992307  0.20838801  0.54531810    -0.00250
C1849       C  0.47028085  0.20274429  0.58027155    -0.11980
C1850       C  0.43917724  0.19232135  0.59735573     0.01950
H1851       H  0.38295587  0.18906105  0.53008618     0.14930
H1852       H  0.49497502  0.20609338  0.59400629     0.14930
C1853       C  0.44075485  0.18514348  0.63320644     0.36590
C1854       C  0.43591021  0.21320894  0.49168482     0.36490
N1855       N  0.44193913  0.17932105  0.66188956    -0.43760
N1856       N  0.43454762  0.22026857  0.46330207    -0.43750
C1857       C  0.55758337  0.20249321  0.44975579    -0.00170
C1858       C  0.53264046  0.19083662  0.42644388    -0.12040
C1859       C  0.54481246  0.17675272  0.39598182     0.02070
C1860       C  0.58199231  0.17631307  0.38815197    -0.00250
C1861       C  0.60682590  0.18760236  0.41154992    -0.11980
C1862       C  0.59500658  0.19963112  0.44275781     0.01950
H1863       H  0.50380967  0.19268930  0.43203273     0.14930
H1864       H  0.63567814  0.18554464  0.40604407     0.14930
C1865       C  0.62174491  0.20734288  0.46754737     0.36590
C1866       C  0.51926463  0.16231973  0.37344605     0.36490
N1867       N  0.64304809  0.21352652  0.48745093    -0.43760
N1868       N  0.49990013  0.14974304  0.35490873    -0.43750
C1869       C  0.56168195  0.29512184  0.53203041    -0.00170
C1870       C  0.59815801  0.29331159  0.54003313    -0.12040
C1871       C  0.61367689  0.31983884  0.55692407     0.02070
C1872       C  0.59215563  0.34833840  0.56570166    -0.00250
C1873       C  0.55596438  0.35073956  0.55647759    -0.11980
C1874       C  0.54064398  0.32419858  0.53924007     0.01950
H1875       H  0.61391477  0.27048822  0.53458821     0.14930
H1876       H  0.53985981  0.37312843  0.56281420     0.14930
C1877       C  0.50348604  0.32652165  0.52914444     0.36590
C1878       C  0.65079828  0.31618479  0.56703949     0.36490
N1879       N  0.47393762  0.32660576  0.52032871    -0.43760
N1880       N  0.68046214  0.31323319  0.57524498    -0.43750
C1881       C  0.69997262  0.07254642  0.46109104    -0.00170
C1882       C  0.69279253  0.04789142  0.43670346    -0.12040
C1883       C  0.68170191  0.05701689  0.40464627     0.02070
C1884       C  0.67958897  0.09148154  0.39581204    -0.00250
C1885       C  0.68769443  0.11627520  0.41975600    -0.11980
C1886       C  0.69692976  0.10714453  0.45256569     0.01950
H1887       H  0.69580341  0.02119754  0.44268393     0.14930
H1888       H  0.68496430  0.14288287  0.41336357     0.14930
C1889       C  0.70118621  0.13362615  0.47725844     0.36590
C1890       C  0.67208805  0.03035779  0.38183640     0.36490
N1891       N  0.70462441  0.15480716  0.49708111    -0.43760
N1892       N  0.66381373  0.00852927  0.36432693    -0.43750
C1893       C  0.70292443  0.98241188  0.54788140    -0.00170
C1894       C  0.69499332  0.95657213  0.52511289    -0.12040
C1895       C  0.68686194  0.92430407  0.53697185     0.02070
C1896       C  0.68798995  0.91762820  0.57200249    -0.00250
C1897       C  0.69615420  0.94341628  0.59465945    -0.11980
C1898       C  0.70269338  0.97591622  0.58301108     0.01950
H1899       H  0.69562014  0.96150573  0.49806628     0.14930
H1900       H  0.69531628  0.93865569  0.62175390     0.14930
C1901       C  0.70784096  0.00232755  0.60766876     0.36590
C1902       C  0.67720364  0.89880292  0.51279944     0.36490
N1903       N  0.71193972  0.02340496  0.62746637    -0.43760
N1904       N  0.66903018  0.87870735  0.49325746    -0.43750
C1905       C  0.79669216  0.06809017  0.54615767    -0.00170
C1906       C  0.79963162  0.06694077  0.58143799    -0.12040
C1907       C  0.83148959  0.07554096  0.59654140     0.02070
C1908       C  0.86083067  0.08667942  0.57611132    -0.00250
C1909       C  0.85817531  0.08785277  0.54077288    -0.11980
C1910       C  0.82636600  0.07821702  0.52561398     0.01950
H1911       H  0.77669976  0.05946734  0.59735746     0.14930
H1912       H  0.88070041  0.09681958  0.52516096     0.14930
C1913       C  0.82457629  0.07879807  0.48922330     0.36590
C1914       C  0.83226831  0.07471901  0.63314096     0.36490
N1915       N  0.82131121  0.07934324  0.46020299    -0.43760
N1916       N  0.83284204  0.07394952  0.66242100    -0.43750
C1917       C  0.45956085  0.05537361  0.70301273    -0.00170
C1918       C  0.46519712  0.06683397  0.66970877    -0.12040
C1919       C  0.43726435  0.08238498  0.65253487     0.02070
C1920       C  0.40346666  0.08703707  0.66920628    -0.00250
C1921       C  0.39757929  0.07533037  0.70234047    -0.11980
C1922       C  0.42537459  0.05898420  0.71921016     0.01950
H1923       H  0.49161708  0.06397416  0.65731626     0.14930
H1924       H  0.37122264  0.07859027  0.71475651     0.14930
C1925       C  0.41812758  0.04490537  0.75239810     0.36590
C1926       C  0.44431009  0.09454937  0.61845454     0.36490
N1927       N  0.41299842  0.03312360  0.77889742    -0.43760
N1928       N  0.44991856  0.10426690  0.59116759    -0.43750
C1929       C  0.54858871  0.05539281  0.79491242    -0.00170
C1930       C  0.55876079  0.03407615  0.82160848    -0.12040
C1931       C  0.57421965  0.04745514  0.85035797     0.02070
C1932       C  0.57856122  0.08258100  0.85309122    -0.00250
C1933       C  0.56775572  0.10403409  0.82695975    -0.11980
C1934       C  0.55359711  0.09072638  0.79756165     0.01950
H1935       H  0.55499870  0.00695125  0.81983232     0.14930
H1936       H  0.57217079  0.13107538  0.82881006     0.14930
C1937       C  0.54696835  0.11362463  0.76977066     0.36590
C1938       C  0.58562506  0.02504803  0.87689548     0.36490
N1939       N  0.54180486  0.13199599  0.74750973    -0.43760
N1940       N  0.59555341  0.00801331  0.89866650    -0.43750
C1941       C  0.55729542  0.97022605  0.70210120    -0.00170
C1942       C  0.53699516  0.94148452  0.69482341    -0.12040
C1943       C  0.55282139  0.91447663  0.67710716     0.02070
C1944       C  0.58947238  0.91599401  0.66720310    -0.00250
C1945       C  0.60981837  0.94458871  0.67440746    -0.11980
C1946       C  0.59385222  0.97201503  0.69132498     0.01950
H1947       H  0.50876195  0.94026908  0.70290601     0.14930
H1948       H  0.63800154  0.94573622  0.66611366     0.14930
C1949       C  0.61491235  0.00216613  0.69568378     0.36590
C1950       C  0.53158845  0.88509057  0.67007821     0.36490
N1951       N  0.63179127  0.02634324  0.69896605    -0.43760
N1952       N  0.51542175  0.86115201  0.66386633    -0.43750
C1953       C  0.41065007  0.57925715  0.17052094    -0.00170
C1954       C  0.40352853  0.56090535  0.20008064    -0.12040
C1955       C  0.43132760  0.54381083  0.21577928     0.02070
C1956       C  0.46682808  0.54636577  0.20229346    -0.00250
C1957       C  0.47390362  0.56430070  0.17229214    -0.11980
C1958       C  0.44572630  0.58064709  0.15600666     0.01950
H1959       H  0.37612254  0.55940317  0.21044772     0.14930
H1960       H  0.50127894  0.56552322  0.16180902     0.14930
C1961       C  0.45331155  0.59904840  0.12501341     0.36590
C1962       C  0.42252439  0.52242988  0.24449624     0.36490
N1963       N  0.45935037  0.61367524  0.10011734    -0.43760
N1964       N  0.41522950  0.50492991  0.26713206    -0.43750
C1965       C  0.55278499  0.45067273  0.20575541    -0.00170
C1966       C  0.53176084  0.43241553  0.18318133    -0.12040
C1967       C  0.54754912  0.40902187  0.16089055     0.02070
C1968       C  0.58436275  0.40022750  0.16385320    -0.00250
C1969       C  0.60495942  0.41680343  0.18798622    -0.11980
C1970       C  0.58998307  0.44271838  0.20793233     0.01950
H1971       H  0.50308335  0.43797489  0.18136443     0.14930
H1972       H  0.63352524  0.41084772  0.19004584     0.14930
C1973       C  0.61428360  0.46210080  0.22804478     0.36590
C1974       C  0.52587322  0.39719129  0.13366100     0.36490
N1975       N  0.63419732  0.47741458  0.24389069    -0.43760
N1976       N  0.50858762  0.38932658  0.11111748    -0.43750
C1977       C  0.46235328  0.70952563  0.05329150    -0.00170
C1978       C  0.43548491  0.69789381  0.03228573    -0.12040
C1979       C  0.40452189  0.68342189  0.04617085     0.02070
C1980       C  0.39986511  0.68160488  0.08164806    -0.00250
C1981       C  0.42629361  0.69445350  0.10264228    -0.11980
C1982       C  0.45787163  0.70767880  0.08879902     0.01950
H1983       H  0.43896160  0.69975238  0.00496074     0.14930
H1984       H  0.42336237  0.69221027  0.12998026     0.14930
C1985       C  0.48602142  0.71702300  0.11153804     0.36590
C1986       C  0.37866542  0.67047895  0.02318984     0.36490
N1987       N  0.50848411  0.72433301  0.12987512    -0.43760
N1988       N  0.35890634  0.66015416  0.00373180    -0.43750
C1989       C  0.55053984  0.80029551  0.04841268    -0.00170
C1990       C  0.54811254  0.80499851  0.08356063    -0.12040
C1991       C  0.55909027  0.83488779  0.09790768     0.02070
C1992       C  0.57419438  0.86006057  0.07681429    -0.00250
C1993       C  0.57559795  0.85601838  0.04157630    -0.11980
C1994       C  0.56332107  0.82643090  0.02707989     0.01950
H1995       H  0.53829268  0.78488592  0.09999639     0.14930
H1996       H  0.58707528  0.87568431  0.02550969     0.14930
C1997       C  0.56384188  0.82383016  0.99057370     0.36590
C1998       C  0.55672189  0.83788126  0.13440207     0.36490
N1999       N  0.56436511  0.82202458  0.96131382    -0.43760
N2000       N  0.55455432  0.84023214  0.16359974    -0.43750
C2001       C  0.56297869  0.70452838  0.96837483    -0.00170
C2002       C  0.57134193  0.72702202  0.94179881    -0.12040
C2003       C  0.58242723  0.71505964  0.91017229     0.02070
C2004       C  0.58324746  0.67998288  0.90438887    -0.00250
C2005       C  0.57569216  0.65736054  0.93095856    -0.11980
C2006       C  0.56653392  0.66932737  0.96316250     0.01950
H2007       H  0.56849227  0.75411161  0.94544641     0.14930
H2008       H  0.57840397  0.63026298  0.92685663     0.14930
C2009       C  0.56220115  0.64509357  0.99039010     0.36590
C2010       C  0.59289768  0.73929384  0.88440201     0.36490
N2011       N  0.55879503  0.62555844  0.01208561    -0.43760
N2012       N  0.60203528  0.75879050  0.86411682    -0.43750
C2013       C  0.71465956  0.46274078  0.03091793    -0.00170
C2014       C  0.71412796  0.45997689  0.06642308    -0.12040
C2015       C  0.70076818  0.43124995  0.08245453     0.02070
C2016       C  0.68710910  0.40498355  0.06271909    -0.00250
C2017       C  0.68671833  0.40785781  0.02750021    -0.11980
C2018       C  0.70021336  0.43643143  0.01139759     0.01950
H2019       H  0.72381062  0.48051308  0.08179829     0.14930
H2020       H  0.67554525  0.38770121  0.01249880     0.14930
C2021       C  0.69815771  0.43764412  0.97504486     0.36590
C2022       C  0.69979208  0.43017314  0.11907245     0.36490
N2023       N  0.69506811  0.43827809  0.94600859    -0.43760
N2024       N  0.69902658  0.42928166  0.14838070    -0.43750
C2025       C  0.85869887  0.58566086  0.06895176    -0.00170
C2026       C  0.86560652  0.55213697  0.05902009    -0.12040
C2027       C  0.84015764  0.53471213  0.04087105     0.02070
C2028       C  0.80754146  0.55116296  0.03300446    -0.00250
C2029       C  0.80071026  0.58467871  0.04316435    -0.11980
C2030       C  0.82616119  0.60214360  0.06099116     0.01950
H2031       H  0.89101688  0.53987372  0.06497531     0.14930
H2032       H  0.77516108  0.59700368  0.03757487     0.14930
C2033       C  0.81771057  0.63631148  0.07203582     0.36590
C2034       C  0.84816526  0.50052730  0.02985806     0.36490
N2035       N  0.81101997  0.66363072  0.08098451    -0.43760
N2036       N  0.85388530  0.47309414  0.02078302    -0.43750
C2037       C  0.68199997  0.58867952  0.89425326    -0.00170
C2038       C  0.69191625  0.55465344  0.89053439    -0.12040
C2039       C  0.71102669  0.53835529  0.91549680     0.02070
C2040       C  0.71686677  0.55538126  0.94596159    -0.00250
C2041       C  0.70676952  0.58946964  0.94995161    -0.11980
C2042       C  0.68994749  0.60655307  0.92384901     0.01950
H2043       H  0.68525926  0.54092036  0.86803858     0.14930
H2044       H  0.71175354  0.60250054  0.97350306     0.14930
C2045       C  0.67954232  0.64167205  0.92860080     0.36590
C2046       C  0.72685061  0.50545046  0.90829755     0.36490
N2047       N  0.67128416  0.66980964  0.93237433    -0.43760
N2048       N  0.74058704  0.47966231  0.90195270    -0.43750
C2049       C  0.57253865  0.56980104  0.35470538    -0.00170
C2050       C  0.53494773  0.56740858  0.35266011    -0.12040
C2051       C  0.51988961  0.54914453  0.32641415     0.02070
C2052       C  0.54272481  0.53327215  0.30173487    -0.00250
C2053       C  0.58020899  0.53487808  0.30453366    -0.11980
C2054       C  0.59532273  0.55297935  0.33051475     0.01950
H2055       H  0.51742046  0.57983210  0.37144622     0.14930
H2056       H  0.59787352  0.52360210  0.28516925     0.14930
C2057       C  0.63432435  0.55535078  0.33024368     0.36590
C2058       C  0.48108477  0.54778646  0.32464832     0.36490
N2059       N  0.66554287  0.55702374  0.32989721    -0.43760
N2060       N  0.45007012  0.54697307  0.32203766    -0.43750
C2061       C  0.70273170  0.70573215  0.29838241    -0.00170
C2062       C  0.68926991  0.72380509  0.32645384    -0.12040
C2063       C  0.67398788  0.70675048  0.35387236     0.02070
C2064       C  0.67278064  0.67111092  0.35345164    -0.00250
C2065       C  0.68663174  0.65293567  0.32569052    -0.11980
C2066       C  0.70097785  0.66995341  0.29776032     0.01950
H2067       H  0.69100805  0.75120964  0.32705739     0.14930
H2068       H  0.68473074  0.62556307  0.32522456     0.14930
C2069       C  0.71209462  0.65007777  0.26848845     0.36590
C2070       C  0.66004855  0.72629734  0.38223156     0.36490
N2071       N  0.72085038  0.63370000  0.24533259    -0.43760
N2072       N  0.64855515  0.74168041  0.40503631    -0.43750
C2073       C  0.85116060  0.67994069  0.17308611    -0.00170
C2074       C  0.85856620  0.71154917  0.18707637    -0.12040
C2075       C  0.83275035  0.72754381  0.20782835     0.02070
C2076       C  0.79927882  0.71201383  0.21339766    -0.00250
C2077       C  0.79209362  0.68033377  0.19954113    -0.11980
C2078       C  0.81814135  0.66382111  0.17976277     0.01950
H2079       H  0.88472057  0.72310546  0.18258076     0.14930
H2080       H  0.76585950  0.66890378  0.20367711     0.14930
C2081       C  0.81019174  0.63089738  0.16604009     0.36590
C2082       C  0.84123432  0.75883983  0.22440175     0.36490
N2083       N  0.80394049  0.60448881  0.15515610    -0.43760
N2084       N  0.84750991  0.78358979  0.23855194    -0.43750
C2085       C  0.67535236  0.84968500  0.17147066    -0.00170
C2086       C  0.65372530  0.82155928  0.17843299    -0.12040
C2087       C  0.66713051  0.79446963  0.19718341     0.02070
C2088       C  0.70216106  0.79636072  0.21018167    -0.00250
C2089       C  0.72335671  0.82489368  0.20359939    -0.11980
C2090       C  0.71048196  0.85118958  0.18382277     0.01950
H2091       H  0.62680578  0.82040031  0.16840383     0.14930
H2092       H  0.75042128  0.82625896  0.21340176     0.14930
C2093       C  0.73369826  0.87949797  0.17695331     0.36590
C2094       C  0.64541512  0.76449785  0.20092754     0.36490
N2095       N  0.75264540  0.90196320  0.17140973    -0.43760
N2096       N  0.62806269  0.74043802  0.20377082    -0.43750
C2097       C  0.32916636  0.52525514  0.94837850    -0.00170
C2098       C  0.31985809  0.55189603  0.97012610    -0.12040
C2099       C  0.31907351  0.58493836  0.95845360     0.02070
C2100       C  0.32940017  0.59216020  0.92472379    -0.00250
C2101       C  0.33982038  0.56548043  0.90294134    -0.11980
C2102       C  0.33936925  0.53200967  0.91442597     0.01950
H2103       H  0.31000914  0.54656000  0.99574777     0.14930
H2104       H  0.34918963  0.57087505  0.87722532     0.14930
C2105       C  0.34897196  0.50502605  0.89111828     0.36590
C2106       C  0.30357935  0.60948722  0.98127266     0.36490
N2107       N  0.35653659  0.48334279  0.87245160    -0.43760
N2108       N  0.28958051  0.62608935  0.00186039    -0.43750
C2109       C  0.23196093  0.44623448  0.94374832    -0.00170
C2110       C  0.23646053  0.42101524  0.91931804    -0.12040
C2111       C  0.20667291  0.40849894  0.90335766     0.02070
C2112       C  0.17228998  0.42237133  0.91124670    -0.00250
C2113       C  0.16782297  0.44848039  0.93495718    -0.11980
C2114       C  0.19769740  0.46037334  0.95169332     0.01950
H2115       H  0.26315900  0.41040722  0.91359732     0.14930
H2116       H  0.14098608  0.45825970  0.94151551     0.14930
C2117       C  0.19271589  0.48614680  0.97739593     0.36590
C2118       C  0.21193664  0.38024329  0.88053323     0.36490
N2119       N  0.18888143  0.50665314  0.99814009    -0.43760
N2120       N  0.21683811  0.35726261  0.86280192    -0.43750
C2121       C  0.31326971  0.44028014  0.04005984    -0.00170
C2122       C  0.32239615  0.46198288  0.06650891    -0.12040
C2123       C  0.33310873  0.44877810  0.09750947     0.02070
C2124       C  0.33387916  0.41340673  0.10228684    -0.00250
C2125       C  0.32284521  0.39195880  0.07655245    -0.11980
C2126       C  0.31323777  0.40492276  0.04535241     0.01950
H2127       H  0.32175450  0.48919097  0.06271856     0.14930
H2128       H  0.32420341  0.36477554  0.07999139     0.14930
C2129       C  0.30616013  0.38117852  0.01858646     0.36590
C2130       C  0.34367903  0.47186663  0.12367931     0.36490
N2131       N  0.30047226  0.36215712  0.99718213    -0.43760
N2132       N  0.35230790  0.49044269  0.14450582    -0.43750
C2133       C  0.54985636  0.46068555  0.78580705    -0.00170
C2134       C  0.53878484  0.44472234  0.81586698    -0.12040
C2135       C  0.56180925  0.42224893  0.83170613     0.02070
C2136       C  0.59585634  0.41466318  0.81641786    -0.00250
C2137       C  0.60654146  0.42981915  0.78571544    -0.11980
C2138       C  0.58384914  0.45347579  0.77065205     0.01950
H2139       H  0.51230947  0.45026866  0.82717980     0.14930
H2140       H  0.63347421  0.42514122  0.77499680     0.14930
C2141       C  0.59673139  0.47260278  0.74172240     0.36590
C2142       C  0.55054595  0.40848227  0.86426219     0.36490
N2143       N  0.60618580  0.48922380  0.71911553    -0.43760
N2144       N  0.54180893  0.39783853  0.89052348    -0.43750
C2145       C  0.46168367  0.55404631  0.79739684    -0.00170
C2146       C  0.45222307  0.58419565  0.78110695    -0.12040
C2147       C  0.43486272  0.61009140  0.79901293     0.02070
C2148       C  0.42861963  0.60663200  0.83417893    -0.00250
C2149       C  0.43867675  0.57688345  0.85078647    -0.11980
C2150       C  0.45420361  0.55008111  0.83251093     0.01950
H2151       H  0.45780608  0.58726831  0.75415174     0.14930
H2152       H  0.43237930  0.57386952  0.87763094     0.14930
C2153       C  0.45956443  0.51829687  0.84995024     0.36590
C2154       C  0.42280248  0.63934753  0.78041672     0.36490
N2155       N  0.46353020  0.49293135  0.86416428    -0.43760
N2156       N  0.41257835  0.66235247  0.76512963    -0.43750
C2157       C  0.46275327  0.47779365  0.69767347    -0.00170
C2158       C  0.42922063  0.46241365  0.70300419    -0.12040
C2159       C  0.41549717  0.44156545  0.67831444     0.02070
C2160       C  0.43573295  0.43608584  0.64803398    -0.00250
C2161       C  0.46860393  0.45235508  0.64215656    -0.11980
C2162       C  0.48208586  0.47361896  0.66670426     0.01950
H2163       H  0.41484980  0.46510008  0.72721212     0.14930
H2164       H  0.48347217  0.44854777  0.61844103     0.14930
C2165       C  0.51581335  0.49070445  0.66000977     0.36590
C2166       C  0.38186050  0.42433747  0.68542983     0.36490
N2167       N  0.54269351  0.50471933  0.65491049    -0.43760
N2168       N  0.35504223  0.41038293  0.69109653    -0.43750
C2169       C  0.53714114  0.27473987  0.93360071    -0.00170
C2170       C  0.53520765  0.28742277  0.90069185    -0.12040
C2171       C  0.56466745  0.30427195  0.88636831     0.02070
C2172       C  0.59555438  0.30892246  0.90580999    -0.00250
C2173       C  0.59834073  0.29427995  0.93775822    -0.11980
C2174       C  0.56949601  0.27643600  0.95154117     0.01950
H2175       H  0.51024050  0.28571893  0.88707272     0.14930
H2176       H  0.62272454  0.29733151  0.95205463     0.14930
C2177       C  0.57320218  0.26083187  0.98442109     0.36590
C2178       C  0.56181759  0.31846084  0.85278301     0.36490
N2179       N  0.57620025  0.24816749  0.01065866    -0.43760
N2180       N  0.55967899  0.32976254  0.82584702    -0.43750
C2181       C  0.45531763  0.29094645  0.03141917    -0.00170
C2182       C  0.41831955  0.29021992  0.03966392    -0.12040
C2183       C  0.40508811  0.30359608  0.06991837     0.02070
C2184       C  0.42933636  0.31874501  0.09219945    -0.00250
C2185       C  0.46606002  0.32053584  0.08349472    -0.11980
C2186       C  0.47929842  0.30738718  0.05300183     0.01950
H2187       H  0.39976354  0.27828544  0.02267277     0.14930
H2188       H  0.48460706  0.33141367  0.10099258     0.14930
C2189       C  0.51737835  0.31120398  0.04522727     0.36590
C2190       C  0.36670703  0.30071990  0.07724050     0.36490
N2191       N  0.54777391  0.31566312  0.03941037    -0.43760
N2192       N  0.33606406  0.29777762  0.08305354    -0.43750
C2193       C  0.41116429  0.12995007  0.94147798    -0.00170
C2194       C  0.44908973  0.13045426  0.93975902    -0.12040
C2195       C  0.46752512  0.15848742  0.95118565     0.02070
C2196       C  0.44782815  0.18662357  0.96396194    -0.00250
C2197       C  0.41028691  0.18435245  0.96933930    -0.11980
C2198       C  0.39181161  0.15605422  0.95866486     0.01950
H2199       H  0.46420064  0.10981749  0.92769556     0.14930
H2200       H  0.39492604  0.20568803  0.97973606     0.14930
C2201       C  0.35286037  0.15634418  0.96267501     0.36590
C2202       C  0.50639745  0.15874500  0.94814092     0.36490
N2203       N  0.32167342  0.15664706  0.96598664    -0.43760
N2204       N  0.53746646  0.16080850  0.94553382    -0.43750
C2205       C  0.29543573  0.20265878  0.79670270    -0.00170
C2206       C  0.32147707  0.20803978  0.82101981    -0.12040
C2207       C  0.33256509  0.18145199  0.84160163     0.02070
C2208       C  0.31676908  0.14946514  0.83805262    -0.00250
C2209       C  0.29004912  0.14437315  0.81434895    -0.11980
C2210       C  0.27943873  0.17078300  0.79335895     0.01950
H2211       H  0.33324585  0.23288550  0.82365509     0.14930
H2212       H  0.27882187  0.11940549  0.81117952     0.14930
C2213       C  0.25332111  0.16438910  0.76771059     0.36590
C2214       C  0.36042324  0.18738525  0.86572441     0.36490
N2215       N  0.23262849  0.15922818  0.74696349    -0.43760
N2216       N  0.38280199  0.19242392  0.88490246    -0.43750
C2217       C  0.34461834  0.32483985  0.65178158    -0.00170
C2218       C  0.36482955  0.31249291  0.67872201    -0.12040
C2219       C  0.34863796  0.29244225  0.70372203     0.02070
C2220       C  0.31224529  0.28297344  0.70048355    -0.00250
C2221       C  0.29316454  0.29316744  0.67196499    -0.11980
C2222       C  0.30841513  0.31532325  0.64861571     0.01950
H2223       H  0.39279082  0.31990388  0.68106923     0.14930
H2224       H  0.26518639  0.28587127  0.66936704     0.14930
C2225       C  0.28571152  0.32901289  0.62278867     0.36590
C2226       C  0.36904069  0.28441717  0.73340690     0.36490
N2227       N  0.26713965  0.34063004  0.60268105    -0.43760
N2228       N  0.38542243  0.27813314  0.75720473    -0.43750
C2229       C  0.20628249  0.29386377  0.77774497    -0.00170
C2230       C  0.20660003  0.32936277  0.77839169    -0.12040
C2231       C  0.17819565  0.34732776  0.79387993     0.02070
C2232       C  0.15040654  0.32927307  0.81065335    -0.00250
C2233       C  0.14807802  0.29417521  0.80686135    -0.11980
C2234       C  0.17540566  0.27648435  0.78944675     0.01950
H2235       H  0.22990346  0.34302756  0.76863374     0.14930
H2236       H  0.12552737  0.28059693  0.81831390     0.14930
C2237       C  0.17177067  0.24065375  0.78382300     0.36590
C2238       C  0.18008662  0.38385822  0.79499759     0.36490
N2239       N  0.17031119  0.21197243  0.77837577    -0.43760
N2240       N  0.18151589  0.41309980  0.79583872    -0.43750
C2241       C  0.46717513  0.78975816  0.54235825    -0.00170
C2242       C  0.45246151  0.82223191  0.53819876    -0.12040
C2243       C  0.44373455  0.84219583  0.56615149     0.02070
C2244       C  0.44891560  0.82911579  0.59881763    -0.00250
C2245       C  0.46414320  0.79677712  0.60308813    -0.11980
C2246       C  0.47415684  0.77721443  0.57489655     0.01950
H2247       H  0.44802828  0.83202542  0.51292799     0.14930
H2248       H  0.46793248  0.78676439  0.62826816     0.14930
C2249       C  0.49256549  0.74518415  0.57977093     0.36590
C2250       C  0.42860279  0.87555625  0.56050547     0.36490
N2251       N  0.50775149  0.71973438  0.58368081    -0.43760
N2252       N  0.41694683  0.90232807  0.55531447    -0.43750
C2253       C  0.34527541  0.92667600  0.59933876    -0.00170
C2254       C  0.33241929  0.90682557  0.57316338    -0.12040
C2255       C  0.31429715  0.92188848  0.54686416     0.02070
C2256       C  0.30644769  0.95680051  0.54836623    -0.00250
C2257       C  0.31947707  0.97683717  0.57428212    -0.11980
C2258       C  0.33974505  0.96208725  0.59954046     0.01950
H2259       H  0.33812742  0.87979536  0.57247128     0.14930
H2260       H  0.31415232  0.00392528  0.57444959     0.14930
C2261       C  0.35447015  0.98381095  0.62496240     0.36590
C2262       C  0.30677107  0.90170621  0.51745159     0.36490
N2263       N  0.36663671  0.00161063  0.64478207    -0.43760
N2264       N  0.30149769  0.88558841  0.49368621    -0.43750
C2265       C  0.29902256  0.03352449  0.45187642    -0.00170
C2266       C  0.28261575  0.06500111  0.45860421    -0.12040
C2267       C  0.29749182  0.09429869  0.44517591     0.02070
C2268       C  0.32782907  0.09171531  0.42331577    -0.00250
C2269       C  0.34422060  0.06020259  0.41636572    -0.11980
C2270       C  0.33040704  0.03097869  0.43115353     0.01950
H2271       H  0.25944256  0.06677117  0.47603943     0.14930
H2272       H  0.36827970  0.05860906  0.40003090     0.14930
C2273       C  0.34924324  0.99911714  0.42560292     0.36590
C2274       C  0.28380987  0.12640428  0.45729457     0.36490
N2275       N  0.36463829  0.97371237  0.42134210    -0.43760
N2276       N  0.27318692  0.15172174  0.46855246    -0.43750
C2277       C  0.19874726  0.95569702  0.47870106    -0.00170
C2278       C  0.17547179  0.97453300  0.45811543    -0.12040
C2279       C  0.14922040  0.95861510  0.43965657     0.02070
C2280       C  0.14413693  0.92353846  0.44395083    -0.00250
C2281       C  0.16356946  0.90578599  0.46819551    -0.11980
C2282       C  0.19111168  0.92113139  0.48522061     0.01950
H2283       H  0.17939913  0.00148384  0.45454744     0.14930
H2284       H  0.15889913  0.87899162  0.47234970     0.14930
C2285       C  0.21133739  0.89944955  0.50746062     0.36590
C2286       C  0.12938499  0.97879721  0.41569633     0.36490
N2287       N  0.22607459  0.88121686  0.52560392    -0.43760
N2288       N  0.11402543  0.99520074  0.39633755    -0.43750
C2289       C  0.60744797  0.81061414  0.41046436    -0.00170
C2290       C  0.57595648  0.80663267  0.39203148    -0.12040
C2291       C  0.54501083  0.79331731  0.40755000     0.02070
C2292       C  0.54633425  0.78295780  0.44157208    -0.00250
C2293       C  0.57825976  0.78480114  0.45905986    -0.11980
C2294       C  0.60856146  0.79906729  0.44422766     0.01950
H2295       H  0.57498688  0.81552003  0.36611999     0.14930
H2296       H  0.57920083  0.77550976  0.48495930     0.14930
C2297       C  0.63969549  0.79911778  0.46496986     0.36590
C2298       C  0.51197609  0.79252215  0.38896539     0.36490
N2299       N  0.66145767  0.79601462  0.48516906    -0.43760
N2300       N  0.48544225  0.79191358  0.37415903    -0.43750
C2301       C  0.52887088  0.92919382  0.30277479    -0.00170
C2302       C  0.55798478  0.95128162  0.30125077    -0.12040
C2303       C  0.59237328  0.93947920  0.30792193     0.02070
C2304       C  0.59718559  0.90536474  0.31690080    -0.00250
C2305       C  0.56815332  0.88302646  0.31740070    -0.11980
C2306       C  0.53374252  0.89479972  0.31030859     0.01950
H2307       H  0.55389408  0.97742742  0.29352750     0.14930
H2308       H  0.57222493  0.85673317  0.32430849     0.14930
C2309       C  0.50401952  0.87145710  0.31066890     0.36590
C2310       C  0.62208183  0.96225711  0.30269755     0.36490
N2311       N  0.48015863  0.85280262  0.31090639    -0.43760
N2312       N  0.64471377  0.98148406  0.29689421    -0.43750
C2313       C  0.42603739  0.92877335  0.14359853    -0.00170
C2314       C  0.45067852  0.90755225  0.15967156    -0.12040
C2315       C  0.46317598  0.91589696  0.19112566     0.02070
C2316       C  0.45461565  0.94825680  0.20508786    -0.00250
C2317       C  0.43490552  0.97173460  0.18595134    -0.11980
C2318       C  0.41908642  0.96167314  0.15612048     0.01950
H2319       H  0.45633576  0.88222933  0.15007097     0.14930
H2320       H  0.42926118  0.99700165  0.19554973     0.14930
C2321       C  0.39275242  0.98385600  0.14111065     0.36590
C2322       C  0.48009326  0.88858566  0.20965242     0.36490
N2323       N  0.37030141  0.00007887  0.12902699    -0.43760
N2324       N  0.49351854  0.86650348  0.22418527    -0.43750
C2325       C  0.41645107  0.07433280  0.33585355    -0.00170
C2326       C  0.38970893  0.05580767  0.31961762    -0.12040
C2327       C  0.39590547  0.02228787  0.31003917     0.02070
C2328       C  0.43019211  0.00753342  0.31474078    -0.00250
C2329       C  0.45595068  0.02535658  0.33296418    -0.11980
C2330       C  0.44891209  0.05786098  0.34468892     0.01950
H2331       H  0.36343533  0.06719094  0.31510611     0.14930
H2332       H  0.48252254  0.01450887  0.33718147     0.14930
C2333       C  0.47544555  0.07258192  0.36620098     0.36590
C2334       C  0.36656140  0.00350348  0.29618219     0.36490
N2335       N  0.49683421  0.08291585  0.38420210    -0.43760
N2336       N  0.34301583  0.98842603  0.28515422    -0.43750
C2337       C  0.41944388  0.64925496  0.41889723    -0.00170
C2338       C  0.43561969  0.64266598  0.44987336    -0.12040
C2339       C  0.45099590  0.66885304  0.46771592     0.02070
C2340       C  0.44883852  0.70190914  0.45473923    -0.00250
C2341       C  0.43191970  0.70846029  0.42405565    -0.11980
C2342       C  0.41751782  0.68219454  0.40578365     0.01950
H2343       H  0.43663529  0.61706753  0.45978956     0.14930
H2344       H  0.43109610  0.73401742  0.41392448     0.14930
C2345       C  0.40094573  0.68959392  0.37388014     0.36590
C2346       C  0.47076758  0.66109706  0.49781268     0.36490
N2347       N  0.38785344  0.69577815  0.34829928    -0.43760
N2348       N  0.48708277  0.65505968  0.52169007    -0.43750
C2349       C  0.15961332  0.81890365  0.35042710    -0.00170
C2350       C  0.19073157  0.83713422  0.34190719    -0.12040
C2351       C  0.21966787  0.82127461  0.32502505     0.02070
C2352       C  0.21660571  0.78700905  0.31573572    -0.00250
C2353       C  0.18625241  0.76842481  0.32642137    -0.11980
C2354       C  0.15781667  0.78405795  0.34398807     0.01950
H2355       H  0.19211513  0.86386663  0.34801515     0.14930
H2356       H  0.18365953  0.74209361  0.31917894     0.14930
C2357       C  0.12616956  0.76440901  0.35268912     0.36590
C2358       C  0.25168316  0.84071120  0.31731854     0.36490
N2359       N  0.10095551  0.74855676  0.35970691    -0.43760
N2360       N  0.27716993  0.85650350  0.31114986    -0.43750
C2361       C  0.28446024  0.68630275  0.27813218    -0.00170
C2362       C  0.26317285  0.66365837  0.29723124    -0.12040
C2363       C  0.27956284  0.63935966  0.31733700     0.02070
C2364       C  0.31741222  0.63600998  0.31627184    -0.00250
C2365       C  0.33821422  0.65566394  0.29382677    -0.11980
C2366       C  0.32232522  0.68162622  0.27571490     0.01950
H2367       H  0.23406938  0.66738861  0.29922422     0.14930
H2368       H  0.36745850  0.65293142  0.29284781     0.14930
C2369       C  0.34631674  0.70568185  0.25953903     0.36590
C2370       C  0.25762728  0.61926554  0.34014037     0.36490
N2371       N  0.36661966  0.72457780  0.24756268    -0.43760
N2372       N  0.24192473  0.60215504  0.35902884    -0.43750
C2373       C  0.28178039  0.78683980  0.20446677    -0.00170
C2374       C  0.31713856  0.77809731  0.19364748    -0.12040
C2375       C  0.33640251  0.79813996  0.17085481     0.02070
C2376       C  0.32054669  0.82853237  0.15916146    -0.00250
C2377       C  0.28551874  0.83767379  0.17064185    -0.11980
C2378       C  0.26522266  0.81612078  0.19114938     0.01950
H2379       H  0.33048056  0.75595036  0.20363614     0.14930
H2380       H  0.27336565  0.86141557  0.16304294     0.14930
C2381       C  0.22730844  0.82417915  0.19694492     0.36590
C2382       C  0.37260198  0.78698710  0.16107507     0.36490
N2383       N  0.19699219  0.83073292  0.20158922    -0.43760
N2384       N  0.40149731  0.77779780  0.15331002    -0.43750
C2385       C  0.96572209  0.97021740  0.70926871    -0.00170
C2386       C  0.92827751  0.96708478  0.70765205    -0.12040
C2387       C  0.91331680  0.94972218  0.68108762     0.02070
C2388       C  0.93627664  0.93551709  0.65545197    -0.00250
C2389       C  0.97376952  0.93865928  0.65699678    -0.11980
C2390       C  0.98866536  0.95603530  0.68371082     0.01950
H2391       H  0.91077546  0.97731991  0.72775327     0.14930
H2392       H  0.99130809  0.92793719  0.63718171     0.14930
C2393       C  0.02744872  0.95895199  0.68467781     0.36590
C2394       C  0.87449957  0.94564198  0.68170569     0.36490
N2395       N  0.05840551  0.96126383  0.68693187    -0.43760
N2396       N  0.84343888  0.94240204  0.68223790    -0.43750
C2397       C  0.05213824  0.96805927  0.80117236    -0.00170
C2398       C  0.08034557  0.95517362  0.78039765    -0.12040
C2399       C  0.10892707  0.93771402  0.79434536     0.02070
C2400       C  0.11012747  0.93468990  0.82975084    -0.00250
C2401       C  0.08259058  0.94847814  0.85068336    -0.11980
C2402       C  0.05304516  0.96447581  0.83663299     0.01950
H2403       H  0.07966849  0.95822867  0.75313493     0.14930
H2404       H  0.08319926  0.94506754  0.87794906     0.14930
C2405       C  0.02331156  0.97492779  0.85892208     0.36590
C2406       C  0.13588446  0.92260222  0.77173080     0.36490
N2407       N  0.99955156  0.98321876  0.87686012    -0.43760
N2408       N  0.15685010  0.91005207  0.75327968    -0.43750
C2409       C  0.96450528  0.06128030  0.79573972    -0.00170
C2410       C  0.98627682  0.08821523  0.80534418    -0.12040
C2411       C  0.97241779  0.11291666  0.82717560     0.02070
C2412       C  0.93618105  0.11150463  0.83825957    -0.00250
C2413       C  0.91416534  0.08506390  0.82826191    -0.11980
C2414       C  0.92827718  0.05942643  0.80768147     0.01950
H2415       H  0.01438397  0.08914779  0.79680586     0.14930
H2416       H  0.88624794  0.08398980  0.83738199     0.14930
C2417       C  0.90597311  0.03042345  0.80148811     0.36590
C2418       C  0.99511175  0.13990479  0.83784712     0.36490
N2419       N  0.88819088  0.00709593  0.79680015    -0.43760
N2420       N  0.01140810  0.16248079  0.84755934    -0.43750
C2421       C  0.96504156  0.70805150  0.96020089    -0.00170
C2422       C  0.92741794  0.70713666  0.95948085    -0.12040
C2423       C  0.91038593  0.68171182  0.94263336     0.02070
C2424       C  0.93144521  0.65648999  0.92571294    -0.00250
C2425       C  0.96930309  0.65793771  0.92520115    -0.11980
C2426       C  0.98627361  0.68376141  0.94249838     0.01950
H2427       H  0.91115226  0.72672446  0.97193057     0.14930
H2428       H  0.98543101  0.63870028  0.91199359     0.14930
C2429       C  0.02512822  0.68523647  0.94201340     0.36590
C2430       C  0.87124666  0.68278851  0.94307213     0.36490
N2431       N  0.05615197  0.68821342  0.94191598    -0.43760
N2432       N  0.83995620  0.68379027  0.94407806    -0.43750
C2433       C  0.95367699  0.78721247  0.05431808    -0.00170
C2434       C  0.97483681  0.79832223  0.08071112    -0.12040
C2435       C  0.95897291  0.81639197  0.10727966     0.02070
C2436       C  0.92146232  0.82240644  0.10781157    -0.00250
C2437       C  0.89988947  0.80877953  0.08288916    -0.11980
C2438       C  0.91585801  0.79182251  0.05554270     0.01950
H2439       H  0.00397427  0.79462793  0.07942412     0.14930
H2440       H  0.87094395  0.81372195  0.08341523     0.14930
C2441       C  0.89340915  0.78283649  0.02767910     0.36590
C2442       C  0.98172863  0.82939508  0.13300429     0.36490
N2443       N  0.87509174  0.77616077  0.00544353    -0.43760
N2444       N  0.99969228  0.84026923  0.15366540    -0.43750
C2445       C  0.03776607  0.81150454  0.95954399    -0.00170
C2446       C  0.03595837  0.81701730  0.92458906    -0.12040
C2447       C  0.06471826  0.83160793  0.90701533     0.02070
C2448       C  0.09532278  0.84110316  0.92492314    -0.00250
C2449       C  0.09592787  0.83824060  0.96012815    -0.11980
C2450       C  0.06741477  0.82332625  0.97764815     0.01950
H2451       H  0.01263750  0.80875015  0.91090300     0.14930
H2452       H  0.11946017  0.84614862  0.97374801     0.14930
C2453       C  0.07029123  0.81880426  0.01373697     0.36590
C2454       C  0.06222338  0.83650766  0.87085099     0.36490
N2455       N  0.07179889  0.81547434  0.04275268    -0.43760
N2456       N  0.06036703  0.84045838  0.84190030    -0.43750
C2457       C  0.81524295  0.05350519  0.96482106    -0.00170
C2458       C  0.85276679  0.05682331  0.96594800    -0.12040
C2459       C  0.86885698  0.08713643  0.95638266     0.02070
C2460       C  0.84679107  0.11451486  0.94597779    -0.00250
C2461       C  0.80917026  0.11167384  0.94722481    -0.11980
C2462       C  0.79325572  0.08129054  0.95605630     0.01950
H2463       H  0.86943287  0.03548352  0.97358749     0.14930
H2464       H  0.79228025  0.13292070  0.94025570     0.14930
C2465       C  0.75437312  0.07880994  0.95574817     0.36590
C2466       C  0.90787441  0.08857171  0.95568443     0.36490
N2467       N  0.72345713  0.07500584  0.95538470    -0.43760
N2468       N  0.93913391  0.08956661  0.95524086    -0.43750
C2469       C  0.72132032  0.96650556  0.95148622    -0.00170
C2470       C  0.70581122  0.98444691  0.92450451    -0.12040
C2471       C  0.67837794  0.97026261  0.90587902     0.02070
C2472       C  0.66254924  0.93983638  0.91723191    -0.00250
C2473       C  0.67855515  0.92168821  0.94352644    -0.11980
C2474       C  0.70908874  0.93345346  0.95894031     0.01950
H2475       H  0.71492429  0.00953222  0.91762920     0.14930
H2476       H  0.66819415  0.89723928  0.95129408     0.14930
C2477       C  0.72815890  0.90993427  0.98048256     0.36590
C2478       C  0.66776004  0.98700307  0.87508832     0.36490
N2479       N  0.74328946  0.89100929  0.99765769    -0.43760
N2480       N  0.65902888  0.99960986  0.85006595    -0.43750
C2481       C  0.79482895  0.96727950  0.05112665    -0.00170
C2482       C  0.82291469  0.94427943  0.04339366    -0.12040
C2483       C  0.83700157  0.92406962  0.06854138     0.02070
C2484       C  0.82192618  0.92635739  0.10147923    -0.00250
C2485       C  0.79337719  0.94880354  0.10899816    -0.11980
C2486       C  0.77971303  0.96972188  0.08388099     0.01950
H2487       H  0.83421667  0.94267278  0.01776062     0.14930
H2488       H  0.78365118  0.95109224  0.13478259     0.14930
C2489       C  0.75206548  0.99476206  0.09207002     0.36590
C2490       C  0.86772458  0.90233878  0.06028261     0.36490
N2491       N  0.73012901  0.01519796  0.09813792    -0.43760
N2492       N  0.89255040  0.88532051  0.05342426    -0.43750
C2493       C  0.80427870  0.71789053  0.79976552    -0.00170
C2494       C  0.81227137  0.68843188  0.78161225    -0.12040
C2495       C  0.82452639  0.65994207  0.79830286     0.02070
C2496       C  0.82761072  0.66058367  0.83377890    -0.00250
C2497       C  0.81923233  0.68994120  0.85206779    -0.11980
C2498       C  0.80845283  0.71902228  0.83520860     0.01950
H2499       H  0.80879594  0.68768407  0.75441525     0.14930
H2500       H  0.82303934  0.69067133  0.87914265     0.14930
C2501       C  0.80352088  0.74989214  0.85452508     0.36590
C2502       C  0.83460204  0.63078058  0.77826969     0.36490
N2503       N  0.79978097  0.77453866  0.87011793    -0.43760
N2504       N  0.84341785  0.60772447  0.76199105    -0.43750
C2505       C  0.71158122  0.80491985  0.79553412    -0.00170
C2506       C  0.71574688  0.81532296  0.82896755    -0.12040
C2507       C  0.68770220  0.83182766  0.84602195     0.02070
C2508       C  0.65582378  0.83887184  0.82872710    -0.00250
C2509       C  0.65134698  0.82808009  0.79542236    -0.11980
C2510       C  0.67910460  0.81036236  0.77885158     0.01950
H2511       H  0.74102944  0.81069150  0.84156368     0.14930
H2512       H  0.62617741  0.83309596  0.78274536     0.14930
C2513       C  0.67364849  0.79634688  0.74574021     0.36590
C2514       C  0.69277716  0.84202787  0.88067121     0.36490
N2515       N  0.67042079  0.78397727  0.71951522    -0.43760
N2516       N  0.69718467  0.84968778  0.90849533    -0.43750
C2517       C  0.80809196  0.80429254  0.70819047    -0.00170
C2518       C  0.78698577  0.81276849  0.68031160    -0.12040
C2519       C  0.80186313  0.83080793  0.65322912     0.02070
C2520       C  0.83846669  0.83944724  0.65369668    -0.00250
C2521       C  0.85962909  0.83087449  0.68131774    -0.11980
C2522       C  0.84461250  0.81385439  0.70888510     0.01950
H2523       H  0.75877358  0.80562591  0.67996076     0.14930
H2524       H  0.88779024  0.83824397  0.68163549     0.14930
C2525       C  0.86668280  0.80825892  0.73805285     0.36590
C2526       C  0.77956613  0.83974034  0.62511153     0.36490
N2527       N  0.88439695  0.80384563  0.76138703    -0.43760
N2528       N  0.76222461  0.84747454  0.60238616    -0.43750
loop_ 
_geom_bond_atom_site_label_1 
_geom_bond_atom_site_label_2 
_geom_bond_distance 
_geom_bond_site_symmetry_2 
_ccdc_geom_bond_type 
O1           Ni7   1.907       .  S
O1           C22   1.269       .  A
O2          Ni25   1.981       .  S
O2           C11   1.288       .  A
O3           Ni7   1.928       .  S
O3          Ni25   1.952       .  S
O3          Ni19   1.916       .  S
O3           H26   0.971       .  S
C4           O21   1.287       .  A
C4           O13   1.272       .  A
C4          C428   1.536       .  S
O5          Ni24   1.920       .  S
O5           C11   1.274       .  A
O6          Ni24   1.981       .  S
O6            C8   1.286       .  A
Ni7          O10   1.893       .  S
Ni7          O12   1.968       .  S
C8           O18   1.288       .  A
C8          C719   1.563       .  S
O9          Ni25   1.982       .  S
O9           C15   1.283       .  A
O10          C15   1.265       .  A
C11        C1132   1.522       .  S
O12          C14   1.282       .  A
O13         Ni24   1.907       .  S
C14          O20   1.289       .  A
C14         C654   1.546       .  S
C15         C946   1.522       .  S
H16          O17   0.964       .  S
O17         Ni25   1.910       .  S
O17         Ni19   1.949       .  S
O17         Ni24   1.926       .  S
O18         Ni19   2.013       .  S
Ni19         O23   1.978       .  S
Ni19         O21   1.988       .  S
O20         Ni25   2.009       .  S
C22          O23   1.290       .  A
C22        C1043   1.512       .  S
O27         Ni33   1.931       .  S
O27          C48   1.275       .  A
O28         Ni51   1.991       .  S
O28          C37   1.284       .  A
O29         Ni33   1.931       .  S
O29         Ni51   1.950       .  S
O29         Ni45   1.927       .  S
O29          H52   0.962       .  S
C30          O47   1.293       .  A
C30          O39   1.274       .  A
C30         C512   1.522       .  S
O31         Ni50   1.906       .  S
O31          C37   1.269       .  A
O32         Ni50   1.971       .  S
O32          C34   1.282       .  A
Ni33         O36   1.921       .  S
Ni33         O38   1.978       .  S
C34          O44   1.282       .  A
C34         C910   1.552       .  S
O35         Ni51   1.973       .  S
O35          C41   1.288       .  A
O36          C41   1.273       .  A
C37        C1131   1.530       .  S
O38          C40   1.286       .  A
O39         Ni50   1.916       .  S
C40          O46   1.281       .  A
C40         C669   1.544       .  S
C41         C775   1.523       .  S
H42          O43   0.968       .  S
O43         Ni51   1.925       .  S
O43         Ni45   1.942       .  S
O43         Ni50   1.925       .  S
O44         Ni45   1.996       .  S
Ni45         O49   1.982       .  S
Ni45         O47   1.983       .  S
O46         Ni51   1.987       .  S
C48          O49   1.288       .  A
C48        C1332   1.528       .  S
C53        C2493   1.447       .  S
C53          C54   1.397       .  A
C53          C58   1.383       .  A
C54          C55   1.399       .  A
C54          H59   1.084       .  S
C55        C2517   1.456       .  S
C55          C56   1.392       .  A
C56          C57   1.387       .  A
C56          H60   1.085       .  S
C57        C2505   1.436       .  S
C57          C58   1.379       .  A
C58          H61   1.086       .  S
C62        C2469   1.480       .  S
C62          C63   1.401   1_556  A
C62          C67   1.403   1_565  A
C63          C64   1.386       .  A
C63          H68   1.081       .  S
C64        C2481   1.439       .  S
C64          C65   1.383   1_565  A
C65          C66   1.385   1_554  A
C65          H69   1.085       .  S
C66        C2457   1.453       .  S
C66          C67   1.398       .  A
C67          H70   1.082       .  S
C71        C2445   1.454       .  S
C71          C72   1.394       .  A
C71          C76   1.388   1_456  A
C72          C73   1.392   1_455  A
C72          H77   1.083       .  S
C73        C2421   1.454       .  S
C73          C74   1.394   1_556  A
C74          C75   1.385       .  A
C74          H78   1.085       .  S
C75        C2433   1.443       .  S
C75          C76   1.389       .  A
C76          H79   1.085       .  S
C80        C2385   1.459       .  S
C80          C81   1.397   1_565  A
C80          C85   1.392   1_655  A
C81          C82   1.397       .  A
C81          H86   1.084       .  S
C82        C2409   1.453       .  S
C82          C83   1.390   1_655  A
C83          C84   1.386   1_545  A
C83          H87   1.084       .  S
C84        C2397   1.451       .  S
C84          C85   1.389       .  A
C85          H88   1.085       .  S
O89         Ni97   1.884       .  S
O89          C99   1.276       .  A
O90         Ni97   1.919       .  S
O90         C100   1.287       .  A
O91         Ni97   1.936       .  S
O91         C101   1.283       .  A
O92         Ni97   1.887       .  S
O92         C102   1.276       .  A
O93         Ni98   1.884       .  S
O93         C102   1.276       .  A
O94         Ni98   1.934       .  S
O94         C101   1.291       .  A
O95         Ni98   1.933       .  S
O95         C100   1.283       .  A
O96         Ni98   1.884       .  S
O96          C99   1.276       .  A
Ni97        Ni98   2.397       .  S
C99        C2448   1.438       .  S
C100        C324   1.510       .  S
C101        C272   1.512       .  S
C102       C2400   1.438       .  S
O103       Ni111   1.895       .  S
O103        C113   1.279       .  A
O104       Ni111   1.949       .  S
O104        C114   1.289       .  A
O105       Ni111   1.930       .  S
O105        C115   1.287       .  A
O106       Ni111   1.876       .  S
O106        C116   1.273       .  A
O107       Ni112   1.905       .  S
O107        C116   1.278       .  A
O108       Ni112   1.955       .  S
O108        C115   1.289       .  A
O109       Ni112   1.950       .  S
O109        C114   1.290       .  A
O110       Ni112   1.882       .  S
O110        C113   1.274       .  A
Ni111      Ni112   2.391       .  S
C113       C2436   1.441       .  S
C114        C540   1.531       .  S
C115        C369   1.528       .  S
C116       C2484   1.436       .  S
O117       Ni125   1.906       .  S
O117        C127   1.280       .  A
O118       Ni125   1.958       .  S
O118        C128   1.292       .  A
O119       Ni125   1.938       .  S
O119        C129   1.290       .  A
O120       Ni125   1.873       .  S
O120        C130   1.272       .  A
O121       Ni126   1.917       .  S
O121        C130   1.283       .  A
O122       Ni126   1.983       .  S
O122        C129   1.296       .  A
O123       Ni126   1.959       .  S
O123        C128   1.292       .  A
O124       Ni126   1.876       .  S
O124        C127   1.273       .  A
Ni125      Ni126   2.387       .  S
C127       C2520   1.443       .  S
C128        C858   1.549       .  S
C129        C343   1.550       .  S
C130       C2388   1.452       .  S
O131       Ni139   1.868       .  S
O131        C141   1.272       .  A
O132       Ni139   1.935       .  S
O132        C142   1.289       .  A
O133       Ni139   1.964       .  S
O133        C143   1.293       .  A
O134       Ni139   1.913       .  S
O134        C144   1.281       .  A
O135       Ni140   1.865       .  S
O135        C144   1.272       .  A
O136       Ni140   1.942       .  S
O136        C143   1.290       .  A
O137       Ni140   1.965       .  S
O137        C142   1.292       .  A
O138       Ni140   1.911       .  S
O138        C141   1.281       .  A
Ni139      Ni140   2.389       .  S
C141       C2496   1.441       .  S
C142        C280   1.536       .  S
C143        C822   1.541       .  S
C144       C2424   1.449       .  S
O145       Ni153   1.881       .  S
O145        C155   1.274       .  A
O146       Ni153   1.945       .  S
O146        C156   1.286       .  A
O147       Ni153   1.947       .  S
O147        C157   1.293       .  A
O148       Ni153   1.888       .  S
O148        C158   1.278       .  A
O149       Ni154   1.904       .  S
O149        C158   1.279       .  A
O150       Ni154   1.953       .  S
O150        C157   1.288       .  A
O151       Ni154   1.944       .  S
O151        C156   1.292       .  A
O152       Ni154   1.882       .  S
O152        C155   1.275       .  A
Ni153      Ni154   2.391       .  S
C155       C2508   1.425       .  S
C156        C388   1.526       .  S
C157        C235   1.540       .  S
C158       C2472   1.470       .  S
O159       Ni167   1.893       .  S
O159        C169   1.275       .  A
O160       Ni167   1.957       .  S
O160        C170   1.291       .  A
O161       Ni167   1.958       .  S
O161        C171   1.291       .  A
O162       Ni167   1.901       .  S
O162        C172   1.281       .  A
O163       Ni168   1.874       .  S
O163        C172   1.271       .  A
O164       Ni168   1.941       .  S
O164        C171   1.289       .  A
O165       Ni168   1.965       .  S
O165        C170   1.294       .  A
O166       Ni168   1.896       .  S
O166        C169   1.280       .  A
Ni167      Ni168   2.391       .  S
C169       C2460   1.454       .  S
C170       C1238   1.548       .  S
C171        C566   1.539       .  S
C172       C2412   1.444       .  S
O173       Ni179   1.915       .  S
O173        C194   1.272       .  A
O174       Ni197   1.984       .  S
O174        C183   1.280       .  A
O175       Ni179   1.924       .  S
O175       Ni197   1.941       .  S
O175       Ni191   1.935       .  S
O175        H198   0.967       .  S
C176        O193   1.302       .  A
C176        O185   1.271       .  A
C176       C1012   1.525       .  S
O177       Ni196   1.893       .  S
O177        C183   1.266       .  A
O178       Ni196   1.968       .  S
O178        C180   1.281       .  A
Ni179       O182   1.925       .  S
Ni179       O184   1.971       .  S
C180        O190   1.278       .  A
C180        C427   1.543       .  S
O181       Ni197   1.986       .  S
O181        C187   1.292       .  A
O182        C187   1.276       .  A
C183        C761   1.523       .  S
O184        C186   1.282       .  A
O185       Ni196   1.907       .  S
C186        O192   1.280       .  A
C186       C1277   1.547       .  S
C187        C668   1.531       .  S
H188        O189   0.967       .  S
O189       Ni197   1.936       .  S
O189       Ni191   1.947       .  S
O189       Ni196   1.926       .  S
O190       Ni191   1.983       .  S
Ni191       O195   1.995       .  S
Ni191       O193   2.002       .  S
O192       Ni197   1.992       .  S
C194        O195   1.288       .  A
C194       C1173   1.533       .  S
O199       Ni205   1.904       .  S
O199        C220   1.267       .  A
O200       Ni223   1.981       .  S
O200        C209   1.283       .  A
O201       Ni205   1.929       .  S
O201       Ni223   1.940       .  S
O201       Ni217   1.930       .  S
O201        H224   0.967       .  S
C202        O219   1.296       .  A
C202        O211   1.277       .  A
C202        C655   1.547       .  S
O203       Ni222   1.913       .  S
O203        C209   1.270       .  A
O204       Ni222   1.965       .  S
O204        C206   1.278       .  A
Ni205       O208   1.934       .  S
Ni205       O210   1.966       .  S
C206        O216   1.279       .  A
C206        C923   1.539       .  S
O207       Ni223   1.983       .  S
O207        C213   1.291       .  A
O208        C213   1.277       .  A
C209        C510   1.517       .  S
O210        C212   1.279       .  A
O211       Ni222   1.938       .  S
C212        O218   1.277       .  A
C212       C1172   1.537       .  S
C213       C1309   1.535       .  S
H214        O215   0.968       .  S
O215       Ni223   1.929       .  S
O215       Ni217   1.943       .  S
O215       Ni222   1.927       .  S
O216       Ni217   1.983       .  S
Ni217       O221   1.998       .  S
Ni217       O219   1.993       .  S
O218       Ni223   1.976       .  S
C220        O221   1.287       .  A
C220       C1067   1.530       .  S
O225       Ni231   1.897       .  S
O225        C246   1.265       .  A
O226       Ni249   1.991       .  S
O226        C235   1.289       .  A
O227       Ni231   1.931       .  S
O227       Ni249   1.942       .  S
O227       Ni243   1.948       .  S
O227        H250   0.967       .  S
C228        O245   1.299       .  A
C228        O237   1.281       .  A
C228        C627   1.563       .  S
O229       Ni248   1.926       .  S
O229        C235   1.276       .  A
O230       Ni248   1.995       .  S
O230        C232   1.289       .  A
Ni231       O234   1.920       .  S
Ni231       O236   1.959       .  S
C232        O242   1.282       .  A
C232        C788   1.566       .  S
O233       Ni249   2.022       .  S
O233        C239   1.307       .  A
O234        C239   1.274       .  A
O236        C238   1.278       .  A
O237       Ni248   1.950       .  S
C238        O244   1.277       .  A
C238        C496   1.534       .  S
C239        C961   1.543       .  S
H240        O241   0.966       .  S
O241       Ni249   1.952       .  S
O241       Ni243   1.934       .  S
O241       Ni248   1.928       .  S
O242       Ni243   1.996       .  S
Ni243       O247   1.983       .  S
Ni243       O245   2.012       .  S
O244       Ni249   1.979       .  S
C246        O247   1.283       .  A
C246       C1044   1.521       .  S
O251       Ni257   1.904   1_556  S
O251        C272   1.270       .  A
O252       Ni275   1.982       .  S
O252        C261   1.278       .  A
O253       Ni257   1.929   1_556  S
O253       Ni275   1.939   1_556  S
O253       Ni269   1.917       .  S
O253        H276   0.965       .  S
C254        O271   1.293       .  A
C254        O263   1.274       .  A
C254       C1109   1.505       .  S
O255       Ni274   1.900       .  S
O255        C261   1.264       .  A
O256       Ni274   1.968   1_556  S
O256        C258   1.276       .  A
Ni257       O260   1.904       .  S
Ni257       O262   1.976       .  S
C258        O268   1.281       .  A
C258        C626   1.555       .  S
O259       Ni275   1.949       .  S
O259        C265   1.285       .  A
O260        C265   1.270       .  A
C261        C760   1.518       .  S
O262        C264   1.283       .  A
O263       Ni274   1.915   1_556  S
C264        O270   1.283       .  A
C264       C1360   1.550       .  S
C265        C465   1.499       .  S
H266        O267   0.968       .  S
O267       Ni275   1.918       .  S
O267       Ni269   1.937   1_554  S
O267       Ni274   1.917       .  S
O268       Ni269   2.001       .  S
Ni269       O273   1.970       .  S
Ni269       O271   1.965       .  S
O270       Ni275   1.994       .  S
C272        O273   1.280       .  A
O277       Ni283   1.892   1_655  S
O277        C298   1.264       .  A
O278       Ni301   1.967   1_556  S
O278        C287   1.271       .  A
O279       Ni283   1.912       .  S
O279       Ni301   1.924       .  S
O279       Ni295   1.944   1_455  S
O279        H302   0.967       .  S
C280        O297   1.301       .  A
C280        O289   1.277       .  A
O281       Ni300   1.882       .  S
O281        C287   1.261       .  A
O282       Ni300   1.944       .  S
O282        C284   1.273       .  A
Ni283       O286   1.937       .  S
Ni283       O288   1.956   1_455  S
C284        O294   1.268       .  A
C284       C1108   1.510       .  S
O285       Ni301   1.990       .  S
O285        C291   1.295       .  A
O286        C291   1.279       .  A
C287        C697   1.500       .  S
O288        C290   1.274       .  A
O289       Ni300   1.934   1_655  S
C290        O296   1.269   1_655  A
C290       C1200   1.520       .  S
C291       C1278   1.536       .  S
H292        O293   0.966   1_655  S
O293       Ni301   1.959   1_556  S
O293       Ni295   1.934   1_456  S
O293       Ni300   1.918       .  S
O294       Ni295   1.949   1_456  S
Ni295       O299   1.967       .  S
Ni295       O297   2.005   1_554  S
O296       Ni301   1.958       .  S
C298        O299   1.276       .  A
C298        C802   1.503       .  S
O303       Ni309   1.914       .  S
O303        C324   1.269       .  A
O304       Ni327   1.989       .  S
O304        C313   1.291       .  A
O305       Ni309   1.921       .  S
O305       Ni327   1.951   1_565  S
O305       Ni321   1.919   1_565  S
O305        H328   0.972       .  S
C306        O323   1.284       .  A
C306        O315   1.267       .  A
C306       C1346   1.512       .  S
O307       Ni326   1.919       .  S
O307        C313   1.272       .  A
O308       Ni326   1.960       .  S
O308        C310   1.283       .  A
Ni309       O312   1.902       .  S
Ni309       O314   1.971       .  S
C310        O320   1.278       .  A
C310        C682   1.520       .  S
O311       Ni327   1.996   1_565  S
O311        C317   1.288       .  A
O312        C317   1.269       .  A
C313        C924   1.528       .  S
O314        C316   1.282       .  A
O315       Ni326   1.906       .  S
C316        O322   1.282       .  A
C316       C1094   1.542       .  S
C317        C497   1.543       .  S
H318        O319   0.961       .  S
O319       Ni327   1.925       .  S
O319       Ni321   1.948       .  S
O319       Ni326   1.923       .  S
O320       Ni321   1.975       .  S
Ni321       O325   1.970   1_545  S
Ni321       O323   1.980       .  S
O322       Ni327   1.997   1_565  S
C324        O325   1.286       .  A
O329       Ni335   1.881       .  S
O329        C350   1.265       .  A
O330       Ni353   1.951       .  S
O330        C339   1.270       .  A
O331       Ni335   1.926       .  S
O331       Ni353   1.923       .  S
O331       Ni347   1.970       .  S
O331        H354   0.967       .  S
C332        O349   1.311       .  A
C332        O341   1.280       .  A
C332        C720   1.573       .  S
O333       Ni352   1.889       .  S
O333        C339   1.268       .  A
O334       Ni352   1.979       .  S
O334        C336   1.283       .  A
Ni335       O338   1.930       .  S
Ni335       O340   1.976       .  S
C336        O346   1.277       .  A
C336       C1215   1.552       .  S
O337       Ni353   2.018       .  S
O337        C343   1.301       .  A
O338        C343   1.274       .  A
C339       C1080   1.498       .  S
O340        C342   1.282       .  A
O341       Ni352   1.943       .  S
C342        O348   1.274       .  A
C342        C960   1.544       .  S
H344        O345   0.967       .  S
O345       Ni353   1.965       .  S
O345       Ni347   1.918       .  S
O345       Ni352   1.922       .  S
O346       Ni347   1.983       .  S
Ni347       O351   1.968       .  S
Ni347       O349   2.041       .  S
O348       Ni353   1.974       .  S
C350        O351   1.281       .  A
C350        C450   1.496       .  S
O355       Ni361   1.902       .  S
O355        C376   1.269       .  A
O356       Ni379   1.958       .  S
O356        C365   1.274       .  A
O357       Ni361   1.917   1_655  S
O357       Ni379   1.924       .  S
O357       Ni373   1.925   1_655  S
O357        H380   0.967       .  S
C358        O375   1.295       .  A
C358        O367   1.276       .  A
C358       C1011   1.517       .  S
O359       Ni378   1.902       .  S
O359        C365   1.271       .  A
O360       Ni378   1.971       .  S
O360        C362   1.282       .  A
Ni361       O364   1.934   1_455  S
Ni361       O366   1.980       .  S
C362        O372   1.281       .  A
C362       C1214   1.548       .  S
O363       Ni379   1.983       .  S
O363        C369   1.295       .  A
O364        C369   1.275       .  A
C365        C803   1.507       .  S
O366        C368   1.279       .  A
O367       Ni378   1.933   1_455  S
C368        O374   1.278       .  A
C368       C1361   1.554       .  S
H370        O371   0.966       .  S
O371       Ni379   1.943   1_455  S
O371       Ni373   1.931       .  S
O371       Ni378   1.930   1_455  S
O372       Ni373   1.988   1_655  S
Ni373       O377   1.976       .  S
Ni373       O375   1.975       .  S
O374       Ni379   1.987   1_455  S
C376        O377   1.280       .  A
C376        C525   1.513       .  S
O381       Ni387   1.944       .  S
O381        C402   1.274       .  A
O382       Ni405   1.973   1_545  S
O382        C391   1.291       .  A
O383       Ni387   1.883       .  S
O383       Ni405   1.918   1_554  S
O383       Ni399   1.910       .  S
O383        H406   0.966       .  S
C384        O401   1.282       .  A
C384        O393   1.287       .  A
C384        C988   1.503       .  S
O385       Ni404   1.939       .  S
O385        C391   1.272       .  A
O386       Ni404   1.914   1_565  S
O386        C388   1.269       .  A
Ni387       O390   1.950       .  S
Ni387       O392   1.917   1_565  S
C388        O398   1.296       .  A
O389       Ni405   1.949   1_554  S
O389        C395   1.279       .  A
O390        C395   1.286       .  A
C391        C683   1.516       .  S
O392        C394   1.270       .  A
O393       Ni404   1.953       .  S
C394        O400   1.299       .  A
C394       C1334   1.533       .  S
C395        C464   1.501       .  S
H396        O397   0.966       .  S
O397       Ni405   1.903   1_545  S
O397       Ni399   1.914   1_546  S
O397       Ni404   1.876       .  S
O398       Ni399   2.007   1_556  S
Ni399       O403   1.968       .  S
Ni399       O401   1.953   1_564  S
O400       Ni405   2.016   1_544  S
C402        O403   1.289       .  A
C402        C817   1.512       .  S
C407       C2361   1.456       .  S
C407        C408   1.394       .  A
C407        C412   1.391       .  A
C408        C409   1.403       .  A
C408        H413   1.083       .  S
C409       C2373   1.473       .  S
C409        C410   1.400       .  A
C410        C411   1.391       .  A
C410        H414   1.079       .  S
C411       C2352   1.458       .  S
C411        C412   1.385       .  A
C412        H415   1.085       .  S
O416       Ni424   1.881       .  S
O416        C426   1.273       .  A
O417       Ni424   1.957       .  S
O417        C427   1.291       .  A
O418       Ni424   1.968       .  S
O418        C428   1.292       .  A
O419       Ni424   1.904       .  S
O419        C429   1.282       .  A
O420       Ni425   1.870       .  S
O420        C429   1.272       .  A
O421       Ni425   1.930       .  S
O421        C428   1.285       .  A
O422       Ni425   1.954       .  S
O422        C427   1.291       .  A
O423       Ni425   1.906       .  S
O423        C426   1.279       .  A
Ni424      Ni425   2.389       .  S
C426       C2337   1.435       .  S
C429       C2364   1.454       .  S
C430       C2301   1.432       .  S
C430        C431   1.384       .  A
C430        C435   1.380       .  A
C431        C432   1.398       .  A
C431        H436   1.085       .  S
C432       C2328   1.472   1_565  S
C432        C433   1.406       .  A
C433        C434   1.404       .  A
C433        H437   1.079       .  S
C434       C2316   1.472       .  S
C434        C435   1.384       .  A
C435        H438   1.084       .  S
O439       Ni447   1.885       .  S
O439        C449   1.276       .  A
O440       Ni447   1.897       .  S
O440        C450   1.280       .  A
O441       Ni447   1.906       .  S
O441        C451   1.281       .  A
O442       Ni447   1.901       .  S
O442        C452   1.277       .  A
O443       Ni448   1.909       .  S
O443        C452   1.280       .  A
O444       Ni448   1.960       .  S
O444        C451   1.291       .  A
O445       Ni448   1.942       .  S
O445        C450   1.286       .  A
O446       Ni448   1.892       .  S
O446        C449   1.276       .  A
Ni447      Ni448   2.397       .  S
C449       C2304   1.432       .  S
C451        C537   1.505       .  S
C452       C2289   1.448       .  S
O453       Ni461   1.898       .  S
O453        C463   1.279       .  A
O454       Ni461   1.933       .  S
O454        C464   1.283       .  A
O455       Ni461   1.928       .  S
O455        C465   1.287       .  A
O456       Ni461   1.889       .  S
O456        C466   1.277       .  A
O457       Ni462   1.885       .  S
O457        C466   1.277       .  A
O458       Ni462   1.926       .  S
O458        C465   1.283       .  A
O459       Ni462   1.922       .  S
O459        C464   1.285       .  A
O460       Ni462   1.888       .  S
O460        C463   1.276       .  A
Ni461      Ni462   2.391       .  S
C463       C2376   1.466       .  S
C466       C2313   1.457       .  S
C467       C2277   1.476       .  S
C467        C468   1.406       .  A
C467        C472   1.395       .  A
C468        C469   1.391   1_565  A
C468        H473   1.083       .  S
C469       C2265   1.446       .  S
C469        C470   1.385   1_545  A
C470        C471   1.386       .  A
C470        H474   1.085   1_565  S
C471       C2256   1.441       .  S
C471        C472   1.391       .  A
C472        H475   1.081       .  S
C476       C2292   1.447       .  S
C476        C477   1.381       .  A
C476        C481   1.391       .  A
C477        C478   1.390       .  A
C477        H482   1.085       .  S
C478       C2340   1.447       .  S
C478        C479   1.399       .  A
C479        C480   1.397       .  A
C479        H483   1.084       .  S
C480       C2241   1.453       .  S
C480        C481   1.389       .  A
C481        H484   1.085       .  S
O485       Ni493   1.892       .  S
O485        C495   1.278       .  A
O486       Ni493   1.942       .  S
O486        C496   1.288       .  A
O487       Ni493   1.939       .  S
O487        C497   1.290       .  A
O488       Ni493   1.889       .  S
O488        C498   1.274       .  A
O489       Ni494   1.912       .  S
O489        C498   1.280       .  A
O490       Ni494   1.964       .  S
O490        C497   1.292       .  A
O491       Ni494   1.963       .  S
O491        C496   1.292       .  A
O492       Ni494   1.886       .  S
O492        C495   1.275       .  A
Ni493      Ni494   2.392       .  S
C495       C2253   1.441       .  S
C498       C2244   1.447       .  S
O499       Ni507   1.891       .  S
O499        C509   1.276       .  A
O500       Ni507   1.917       .  S
O500        C510   1.284       .  A
O501       Ni507   1.889       .  S
O501        C511   1.275       .  A
O502       Ni507   1.923       .  S
O502        C512   1.285       .  A
O503       Ni508   1.967       .  S
O503        C512   1.292       .  A
O504       Ni508   1.904       .  S
O504        C511   1.278       .  A
O505       Ni508   1.957       .  S
O505        C510   1.289       .  A
O506       Ni508   1.895       .  S
O506        C509   1.279       .  A
Ni507      Ni508   2.390       .  S
C509       C2325   1.464       .  S
C511       C2268   1.440       .  S
O513       Ni521   1.885       .  S
O513        C523   1.275       .  A
O514       Ni521   1.933       .  S
O514        C524   1.284       .  A
O515       Ni521   1.954       .  S
O515        C525   1.289       .  A
O516       Ni521   1.897       .  S
O516        C526   1.279       .  A
O517       Ni522   1.891       .  S
O517        C526   1.275       .  A
O518       Ni522   1.926       .  S
O518        C525   1.286       .  A
O519       Ni522   1.916       .  S
O519        C524   1.284       .  A
O520       Ni522   1.887       .  S
O520        C523   1.277       .  A
Ni521      Ni522   2.395       .  S
C523       C2349   1.437       .  S
C524        C855   1.512       .  S
C526       C2280   1.455       .  S
O527       Ni533   1.891       .  S
O527        C548   1.267       .  A
O528       Ni551   1.965       .  S
O528        C537   1.276       .  A
O529       Ni533   1.919       .  S
O529       Ni551   1.933   1_545  S
O529       Ni545   1.926       .  S
O529        H552   0.967       .  S
C530        O547   1.291       .  A
C530        O539   1.275       .  A
C530       C1229   1.520       .  S
O531       Ni550   1.905   1_565  S
O531        C537   1.268       .  A
O532       Ni550   1.977       .  S
O532        C534   1.281       .  A
Ni533       O536   1.914   1_545  S
Ni533       O538   1.966   1_545  S
C534        O544   1.276       .  A
C534        C909   1.542       .  S
O535       Ni551   1.961       .  S
O535        C541   1.290       .  A
O536        C541   1.269       .  A
O538        C540   1.279       .  A
O539       Ni550   1.923       .  S
C540        O546   1.273       .  A
C541        C816   1.498       .  S
H542        O543   0.965       .  S
O543       Ni551   1.923       .  S
O543       Ni545   1.940   1_565  S
O543       Ni550   1.919   1_565  S
O544       Ni545   1.975       .  S
Ni545       O549   1.978       .  S
Ni545       O547   1.970       .  S
O546       Ni551   1.965       .  S
C548        O549   1.277       .  A
C548       C1373   1.517       .  S
O553       Ni559   1.916       .  S
O553        C574   1.271       .  A
O554       Ni577   1.979       .  S
O554        C563   1.288       .  A
O555       Ni559   1.921   1_554  S
O555       Ni577   1.951       .  S
O555       Ni571   1.910   1_554  S
O555        H578   0.956       .  S
C556        O573   1.282       .  A
C556        O565   1.271       .  A
C556        C640   1.517       .  S
O557       Ni576   1.938   1_554  S
O557        C563   1.276       .  A
O558       Ni576   1.964   1_554  S
O558        C560   1.286       .  A
Ni559       O562   1.903   1_556  S
Ni559       O564   1.964       .  S
C560        O570   1.286       .  A
C560        C774   1.533       .  S
O561       Ni577   1.976       .  S
O561        C567   1.280       .  A
O562        C567   1.271       .  A
C563       C1201   1.527       .  S
O564        C566   1.283       .  A
O565       Ni576   1.915       .  S
C566        O572   1.285       .  A
C567       C1376   1.525       .  S
H568        O569   0.957       .  S
O569       Ni577   1.923   1_556  S
O569       Ni571   1.957       .  S
O569       Ni576   1.919       .  S
O570       Ni571   1.994   1_554  S
Ni571       O575   1.987       .  S
Ni571       O573   1.972       .  S
O572       Ni577   1.997   1_556  S
C574        O575   1.291       .  A
C574        C989   1.519       .  S
C579       C2220   1.463       .  S
C579        C580   1.398       .  A
C579        C584   1.398       .  A
C580        C581   1.387       .  A
C580        H585   1.084       .  S
C581       C2229   1.464       .  S
C581        C582   1.395       .  A
C582        C583   1.390       .  A
C582        H586   1.084       .  S
C583       C2205   1.451       .  S
C583        C584   1.395       .  A
C584        H587   1.084       .  S
C588       C2169   1.447       .  S
C588        C589   1.390       .  A
C588        C593   1.389       .  A
C589        C590   1.402       .  A
C589        H594   1.082       .  S
C590       C2196   1.470       .  S
C590        C591   1.393       .  A
C591        C592   1.397   1_556  A
C591        H595   1.084   1_556  S
C592       C2181   1.458       .  S
C592        C593   1.387   1_554  A
C593        H596   1.084       .  S
C597       C2145   1.461       .  S
C597        C598   1.402       .  A
C597        C602   1.394       .  A
C598        C599   1.394       .  A
C598        H603   1.084       .  S
C599       C2157   1.455       .  S
C599        C600   1.391       .  A
C600        C601   1.387       .  A
C600        H604   1.085       .  S
C601       C2133   1.450       .  S
C601        C602   1.389       .  A
C602        H605   1.084       .  S
C606       C2121   1.468       .  S
C606        C607   1.395   1_554  A
C606        C611   1.404   1_554  A
C607        C608   1.387       .  A
C607        H612   1.084   1_556  S
C608       C2109   1.440       .  S
C608        C609   1.382       .  A
C609        C610   1.390       .  A
C609        H613   1.085       .  S
C610       C2097   1.458       .  S
C610        C611   1.404       .  A
C611        H614   1.084   1_556  S
O615       Ni623   1.881       .  S
O615        C625   1.274       .  A
O616       Ni623   1.973       .  S
O616        C626   1.293       .  A
O617       Ni623   1.982       .  S
O617        C627   1.297       .  A
O618       Ni623   1.923       .  S
O618        C628   1.283       .  A
O619       Ni624   1.890       .  S
O619        C628   1.274       .  A
O620       Ni624   1.954       .  S
O620        C627   1.293       .  A
O621       Ni624   1.965       .  S
O621        C626   1.294       .  A
O622       Ni624   1.910       .  S
O622        C625   1.281       .  A
Ni623      Ni624   2.386       .  S
C625       C2148   1.447       .  S
C628       C2100   1.457       .  S
O629       Ni637   1.869       .  S
O629        C639   1.272       .  A
O630       Ni637   1.910       .  S
O630        C640   1.280       .  A
O631       Ni637   1.932       .  S
O631        C641   1.287       .  A
O632       Ni637   1.900       .  S
O632        C642   1.279       .  A
O633       Ni638   1.883       .  S
O633        C642   1.273       .  A
O634       Ni638   1.944       .  S
O634        C641   1.288       .  A
O635       Ni638   1.970       .  S
O635        C640   1.294       .  A
O636       Ni638   1.912       .  S
O636        C639   1.281       .  A
Ni637      Ni638   2.393       .  S
C639       C2136   1.442       .  S
C641        C829   1.519       .  S
C642       C2172   1.437       .  S
O643       Ni651   1.905       .  S
O643        C653   1.281       .  A
O644       Ni651   1.977       .  S
O644        C654   1.297       .  A
O645       Ni651   1.955       .  S
O645        C655   1.290       .  A
O646       Ni651   1.880       .  S
O646        C656   1.273       .  A
O647       Ni652   1.911       .  S
O647        C656   1.280       .  A
O648       Ni652   1.961       .  S
O648        C655   1.294       .  A
O649       Ni652   1.947       .  S
O649        C654   1.284       .  A
O650       Ni652   1.887       .  S
O650        C653   1.275       .  A
Ni651      Ni652   2.387       .  S
C653       C2217   1.452       .  S
C656       C2160   1.445       .  S
O657       Ni665   1.906       .  S
O657        C667   1.282       .  A
O658       Ni665   1.958       .  S
O658        C668   1.291       .  A
O659       Ni665   1.963       .  S
O659        C669   1.293       .  A
O660       Ni665   1.893       .  S
O660        C670   1.275       .  A
O661       Ni666   1.909       .  S
O661        C670   1.281       .  A
O662       Ni666   1.955       .  S
O662        C669   1.290       .  A
O663       Ni666   1.924       .  S
O663        C668   1.287       .  A
O664       Ni666   1.865       .  S
O664        C667   1.270       .  A
Ni665      Ni666   2.389       .  S
C667       C2184   1.449       .  S
C670       C2124   1.457       .  S
O671       Ni679   1.901       .  S
O671        C681   1.278       .  A
O672       Ni679   1.957       .  S
O672        C682   1.292       .  A
O673       Ni679   1.952       .  S
O673        C683   1.287       .  A
O674       Ni679   1.913       .  S
O674        C684   1.280       .  A
O675       Ni680   1.886       .  S
O675        C684   1.274       .  A
O676       Ni680   1.920       .  S
O676        C683   1.286       .  A
O677       Ni680   1.938       .  S
O677        C682   1.283       .  A
O678       Ni680   1.899       .  S
O678        C681   1.280       .  A
Ni679      Ni680   2.387       .  S
C681       C2193   1.462       .  S
C684       C2208   1.445       .  S
O685       Ni693   1.899       .  S
O685        C695   1.277       .  A
O686       Ni693   1.915       .  S
O686        C696   1.283       .  A
O687       Ni693   1.905       .  S
O687        C697   1.281       .  A
O688       Ni693   1.886       .  S
O688        C698   1.274       .  A
O689       Ni694   1.904       .  S
O689        C698   1.281       .  A
O690       Ni694   1.950       .  S
O690        C697   1.288       .  A
O691       Ni694   1.931       .  S
O691        C696   1.283       .  A
O692       Ni694   1.884       .  S
O692        C695   1.275       .  A
Ni693      Ni694   2.398       .  S
C695       C2112   1.435       .  S
C696       C1252   1.499       .  S
C698       C2232   1.447       .  S
C699       C2061   1.455       .  S
C699        C700   1.402       .  A
C699        C704   1.389       .  A
C700        C701   1.399       .  A
C700        H705   1.084       .  S
C701       C2088   1.462       .  S
C701        C702   1.393       .  A
C702        C703   1.386       .  A
C702        H706   1.085       .  S
C703       C2076   1.440       .  S
C703        C704   1.382       .  A
C704        H707   1.085       .  S
O708       Ni716   1.875       .  S
O708        C718   1.273       .  A
O709       Ni716   1.970       .  S
O709        C719   1.294       .  A
O710       Ni716   2.003       .  S
O710        C720   1.301       .  A
O711       Ni716   1.930       .  S
O711        C721   1.285       .  A
O712       Ni717   1.875       .  S
O712        C721   1.271       .  A
O713       Ni717   1.949       .  S
O713        C720   1.292       .  A
O714       Ni717   1.969       .  S
O714        C719   1.293       .  A
O715       Ni717   1.909       .  S
O715        C718   1.280       .  A
Ni716      Ni717   2.381       .  S
C718       C2064   1.445       .  S
C721       C2049   1.463       .  S
C722       C2028   1.452       .  S
C722        C723   1.387   1_554  A
C722        C727   1.393       .  A
C723        C724   1.384       .  A
C723        H728   1.085       .  S
C724       C2040   1.446       .  S
C724        C725   1.394       .  A
C725        C726   1.397   1_556  A
C725        H729   1.083       .  S
C726       C2013   1.471       .  S
C726        C727   1.400       .  A
C727        H730   1.083       .  S
C731       C1977   1.451       .  S
C731        C732   1.392       .  A
C731        C736   1.384       .  A
C732        C733   1.397   1_554  A
C732        H737   1.083       .  S
C733       C2001   1.464       .  S
C733        C734   1.399   1_556  A
C734        C735   1.394       .  A
C734        H738   1.084       .  S
C735       C1989   1.456       .  S
C735        C736   1.388       .  A
C736        H739   1.085       .  S
C740       C2052   1.470       .  S
C740        C741   1.405       .  A
C740        C745   1.394       .  A
C741        C742   1.405       .  A
C741        H746   1.083       .  S
C742       C1965   1.477       .  S
C742        C743   1.400       .  A
C743        C744   1.384       .  A
C743        H747   1.084       .  S
C744       C1956   1.448       .  S
C744        C745   1.385       .  A
C745        H748   1.083       .  S
O749       Ni757   1.894       .  S
O749        C759   1.277       .  A
O750       Ni757   1.943       .  S
O750        C760   1.284       .  A
O751       Ni757   1.936       .  S
O751        C761   1.290       .  A
O752       Ni757   1.888       .  S
O752        C762   1.278       .  A
O753       Ni758   1.898       .  S
O753        C762   1.278       .  A
O754       Ni758   1.951       .  S
O754        C761   1.287       .  A
O755       Ni758   1.931       .  S
O755        C760   1.290       .  A
O756       Ni758   1.890       .  S
O756        C759   1.275       .  A
Ni757      Ni758   2.394       .  S
C759       C1953   1.435       .  S
C762       C1980   1.451       .  S
O763       Ni771   1.911       .  S
O763        C773   1.281       .  A
O764       Ni771   1.956       .  S
O764        C774   1.290       .  A
O765       Ni771   1.932       .  S
O765        C775   1.286       .  A
O766       Ni771   1.885       .  S
O766        C776   1.276       .  A
O767       Ni772   1.894       .  S
O767        C776   1.277       .  A
O768       Ni772   1.950       .  S
O768        C775   1.287       .  A
O769       Ni772   1.950       .  S
O769        C774   1.290       .  A
O770       Ni772   1.890       .  S
O770        C773   1.277       .  A
Ni771      Ni772   2.388       .  S
C773       C1968   1.469       .  S
C776       C2016   1.447       .  S
O777       Ni785   1.893       .  S
O777        C787   1.277       .  A
O778       Ni785   1.975       .  S
O778        C788   1.296       .  A
O779       Ni785   1.963       .  S
O779        C789   1.294       .  A
O780       Ni785   1.893       .  S
O780        C790   1.278       .  A
O781       Ni786   1.888       .  S
O781        C790   1.276       .  A
O782       Ni786   1.971       .  S
O782        C789   1.295       .  A
O783       Ni786   1.967       .  S
O783        C788   1.295       .  A
O784       Ni786   1.894       .  S
O784        C787   1.277       .  A
Ni785      Ni786   2.390       .  S
C787       C2037   1.440       .  S
C789        C826   1.567       .  S
C790       C2004   1.447       .  S
O791       Ni799   1.877       .  S
O791        C801   1.274       .  A
O792       Ni799   1.905       .  S
O792        C802   1.282       .  A
O793       Ni799   1.917       .  S
O793        C803   1.283       .  A
O794       Ni799   1.892       .  S
O794        C804   1.276       .  A
O795       Ni800   1.893       .  S
O795        C804   1.278       .  A
O796       Ni800   1.943       .  S
O796        C803   1.289       .  A
O797       Ni800   1.946       .  S
O797        C802   1.287       .  A
O798       Ni800   1.892       .  S
O798        C801   1.277       .  A
Ni799      Ni800   2.399       .  S
C801       C2073   1.429       .  S
C804       C2025   1.440       .  S
O805       Ni813   1.892       .  S
O805        C815   1.277       .  A
O806       Ni813   1.933       .  S
O806        C816   1.283       .  A
O807       Ni813   1.929       .  S
O807        C817   1.289       .  A
O808       Ni813   1.893       .  S
O808        C818   1.276       .  A
O809       Ni814   1.909       .  S
O809        C818   1.280       .  A
O810       Ni814   1.945       .  S
O810        C817   1.285       .  A
O811       Ni814   1.927       .  S
O811        C816   1.288       .  A
O812       Ni814   1.886       .  S
O812        C815   1.276       .  A
Ni813      Ni814   2.391       .  S
C815       C1992   1.444       .  S
C818       C2085   1.450       .  S
O819       Ni825   1.892       .  S
O819        C840   1.264       .  A
O820       Ni843   1.969       .  S
O820        C829   1.283       .  A
O821       Ni825   1.930       .  S
O821       Ni843   1.937       .  S
O821       Ni837   1.929       .  S
O821        H844   0.961       .  S
C822        O839   1.291       .  A
C822        O831   1.280       .  A
O823       Ni842   1.919       .  S
O823        C829   1.274       .  A
O824       Ni842   1.995       .  S
O824        C826   1.283       .  A
Ni825       O828   1.914       .  S
Ni825       O830   1.958       .  S
C826        O836   1.279       .  A
O827       Ni843   1.985       .  S
O827        C833   1.291       .  A
O828        C833   1.270       .  A
O830        C832   1.277       .  A
O831       Ni842   1.941       .  S
C832        O838   1.282       .  A
C832       C1186   1.538       .  S
C833        C947   1.526       .  S
H834        O835   0.968       .  S
O835       Ni843   1.924       .  S
O835       Ni837   1.931       .  S
O835       Ni842   1.924       .  S
O836       Ni837   1.995       .  S
Ni837       O841   1.961       .  S
Ni837       O839   1.977       .  S
O838       Ni843   1.994       .  S
C840        O841   1.278       .  A
C840       C1081   1.496       .  S
O845       Ni851   1.907   1_655  S
O845        C866   1.271       .  A
O846       Ni869   1.963       .  S
O846        C855   1.278       .  A
O847       Ni851   1.925       .  S
O847       Ni869   1.930   1_545  S
O847       Ni863   1.931   1_455  S
O847        H870   0.966       .  S
C848        O865   1.292       .  A
C848        O857   1.274       .  A
C848       C1228   1.522       .  S
O849       Ni868   1.898   1_565  S
O849        C855   1.268       .  A
O850       Ni868   1.978       .  S
O850        C852   1.282       .  A
Ni851       O854   1.932   1_545  S
Ni851       O856   1.979   1_445  S
C852        O862   1.274       .  A
C852       C1310   1.542       .  S
O853       Ni869   1.992       .  S
O853        C859   1.294       .  A
O854        C859   1.278       .  A
O856        C858   1.282       .  A
O857       Ni868   1.922   1_655  S
C858        O864   1.277       .  A
C859       C1096   1.544       .  S
H860        O861   0.968       .  S
O861       Ni869   1.936   1_655  S
O861       Ni863   1.926   1_565  S
O861       Ni868   1.929   1_665  S
O862       Ni863   1.972   1_455  S
Ni863       O867   1.960       .  S
Ni863       O865   1.983       .  S
O864       Ni869   1.983   1_655  S
C866        O867   1.276       .  A
C866        C974   1.507       .  S
C871       C1917   1.459       .  S
C871        C872   1.390       .  A
C871        C876   1.396       .  A
C872        C873   1.391   1_545  A
C872        H877   1.085       .  S
C873       C1941   1.460       .  S
C873        C874   1.398   1_565  A
C874        C875   1.401       .  A
C874        H878   1.084       .  S
C875       C1929   1.473       .  S
C875        C876   1.400       .  A
C876        H879   1.084       .  S
C880       C1893   1.459   1_545  S
C880        C881   1.386       .  A
C880        C885   1.394       .  A
C881        C882   1.388       .  A
C881        H886   1.085       .  S
C882       C1905   1.464       .  S
C882        C883   1.397       .  A
C883        C884   1.401       .  A
C883        H887   1.080       .  S
C884       C1881   1.472       .  S
C884        C885   1.403       .  A
C885        H888   1.084       .  S
C889       C1857   1.450       .  S
C889        C890   1.393       .  A
C889        C894   1.391       .  A
C890        C891   1.384       .  A
C890        H895   1.084       .  S
C891       C1869   1.442       .  S
C891        C892   1.387       .  A
C892        C893   1.385       .  A
C892        H896   1.085       .  S
C893       C1848   1.443       .  S
C893        C894   1.390       .  A
C894        H897   1.085       .  S
O898       Ni906   1.873       .  S
O898        C908   1.274       .  A
O899       Ni906   1.952       .  S
O899        C909   1.290       .  A
O900       Ni906   1.955       .  S
O900        C910   1.293       .  A
O901       Ni906   1.904       .  S
O901        C911   1.280       .  A
O902       Ni907   1.897       .  S
O902        C911   1.277       .  A
O903       Ni907   1.964       .  S
O903        C910   1.293       .  A
O904       Ni907   1.955       .  S
O904        C909   1.292       .  A
O905       Ni907   1.891       .  S
O905        C908   1.278       .  A
Ni906      Ni907   2.391       .  S
C908       C1860   1.439       .  S
C911       C1884   1.460       .  S
O912       Ni920   1.902       .  S
O912        C922   1.278       .  A
O913       Ni920   1.949       .  S
O913        C923   1.287       .  A
O914       Ni920   1.925       .  S
O914        C924   1.289       .  A
O915       Ni920   1.885       .  S
O915        C925   1.275       .  A
O916       Ni921   1.881       .  S
O916        C925   1.276       .  A
O917       Ni921   1.954       .  S
O917        C924   1.288       .  A
O918       Ni921   1.956       .  S
O918        C923   1.294       .  A
O919       Ni921   1.895       .  S
O919        C922   1.277       .  A
Ni920      Ni921   2.395       .  S
C922       C1920   1.446       .  S
C925       C1845   1.432       .  S
C926       C1812   1.432       .  S
C926        C927   1.384       .  A
C926        C931   1.385       .  A
C927        C928   1.383       .  A
C927        H932   1.086       .  S
C928       C1836   1.440       .  S
C928        C929   1.385       .  A
C929        C930   1.393       .  A
C929        H933   1.085       .  S
C930       C1821   1.436       .  S
C930        C931   1.386       .  A
C931        H934   1.085       .  S
O935       Ni943   1.900       .  S
O935        C945   1.278       .  A
O936       Ni943   1.955       .  S
O936        C946   1.289       .  A
O937       Ni943   1.938       .  S
O937        C947   1.291       .  A
O938       Ni943   1.879       .  S
O938        C948   1.274       .  A
O939       Ni944   1.899       .  S
O939        C948   1.279       .  A
O940       Ni944   1.943       .  S
O940        C947   1.285       .  A
O941       Ni944   1.917       .  S
O941        C946   1.286       .  A
O942       Ni944   1.860       .  S
O942        C945   1.272       .  A
Ni943      Ni944   2.394       .  S
C945       C1809   1.429       .  S
C948       C1872   1.436       .  S
O949       Ni957   1.906       .  S
O949        C959   1.280       .  A
O950       Ni957   1.954       .  S
O950        C960   1.290       .  A
O951       Ni957   1.941       .  S
O951        C961   1.291       .  A
O952       Ni957   1.882       .  S
O952        C962   1.274       .  A
O953       Ni958   1.903       .  S
O953        C962   1.281       .  A
O954       Ni958   1.969       .  S
O954        C961   1.290       .  A
O955       Ni958   1.961       .  S
O955        C960   1.292       .  A
O956       Ni958   1.885       .  S
O956        C959   1.274       .  A
Ni957      Ni958   2.387       .  S
C959       C1944   1.448       .  S
C962       C1896   1.448       .  S
O963       Ni971   1.863       .  S
O963        C973   1.272       .  A
O964       Ni971   1.901       .  S
O964        C974   1.280       .  A
O965       Ni971   1.926       .  S
O965        C975   1.286       .  A
O966       Ni971   1.898       .  S
O966        C976   1.279       .  A
O967       Ni972   1.891       .  S
O967        C976   1.277       .  A
O968       Ni972   1.954       .  S
O968        C975   1.290       .  A
O969       Ni972   1.943       .  S
O969        C974   1.288       .  A
O970       Ni972   1.890       .  S
O970        C973   1.278       .  A
Ni971      Ni972   2.399       .  S
C973       C1833   1.426       .  S
C975       C1241   1.520       .  S
C976       C1908   1.449       .  S
O977       Ni985   1.877       .  S
O977        C987   1.274       .  A
O978       Ni985   1.935       .  S
O978        C988   1.286       .  A
O979       Ni985   1.953       .  S
O979        C989   1.286       .  A
O980       Ni985   1.909       .  S
O980        C990   1.278       .  A
O981       Ni986   1.901       .  S
O981        C990   1.279       .  A
O982       Ni986   1.929       .  S
O982        C989   1.286       .  A
O983       Ni986   1.931       .  S
O983        C988   1.280       .  A
O984       Ni986   1.885       .  S
O984        C987   1.277       .  A
Ni985      Ni986   2.391       .  S
C987       C1824   1.434       .  S
C990       C1932   1.457       .  S
C991       C1800   1.447       .  S
C991        C992   1.393       .  A
C991        C996   1.394       .  A
C992        C993   1.388   1_455  A
C992        H997   1.084   1_455  S
C993       C1788   1.454       .  S
C993        C994   1.393   1_655  A
C994        C995   1.385       .  A
C994        H998   1.085   1_455  S
C995       C1776   1.442       .  S
C995        C996   1.387       .  A
C996        H999   1.084       .  S
O1000     Ni1008   1.888       .  S
O1000      C1010   1.277       .  A
O1001     Ni1008   1.951       .  S
O1001      C1011   1.292       .  A
O1002     Ni1008   1.951       .  S
O1002      C1012   1.285       .  A
O1003     Ni1008   1.902       .  S
O1003      C1013   1.277       .  A
O1004     Ni1009   1.884       .  S
O1004      C1013   1.274       .  A
O1005     Ni1009   1.936       .  S
O1005      C1012   1.292       .  A
O1006     Ni1009   1.935       .  S
O1006      C1011   1.284       .  A
O1007     Ni1009   1.886       .  S
O1007      C1010   1.275       .  A
Ni1008    Ni1009   2.392       .  S
C1010      C1761   1.441       .  S
C1013      C1773   1.437       .  S
C1014      C1728   1.450       .  S
C1014      C1015   1.390       .  A
C1014      C1019   1.383       .  A
C1015      C1016   1.385       .  A
C1015      H1020   1.085       .  S
C1016      C1752   1.444       .  S
C1016      C1017   1.395       .  A
C1017      C1018   1.393       .  A
C1017      H1021   1.084       .  S
C1018      C1737   1.443       .  S
C1018      C1019   1.390       .  A
C1019      H1022   1.085       .  S
C1023      C1701   1.448       .  S
C1023      C1024   1.389       .  A
C1023      C1028   1.389       .  A
C1024      C1025   1.388       .  A
C1024      H1029   1.085       .  S
C1025      C1764   1.460       .  S
C1025      C1026   1.396       .  A
C1026      C1027   1.396       .  A
C1026      H1030   1.082       .  S
C1027      C1713   1.463       .  S
C1027      C1028   1.397       .  A
C1028      H1031   1.084       .  S
O1032     Ni1040   1.886       .  S
O1032      C1042   1.278       .  A
O1033     Ni1040   1.926       .  S
O1033      C1043   1.290       .  A
O1034     Ni1040   1.942       .  S
O1034      C1044   1.284       .  A
O1035     Ni1040   1.891       .  S
O1035      C1045   1.276       .  A
O1036     Ni1041   1.893       .  S
O1036      C1045   1.279       .  A
O1037     Ni1041   1.940       .  S
O1037      C1044   1.292       .  A
O1038     Ni1041   1.929       .  S
O1038      C1043   1.281       .  A
O1039     Ni1041   1.874       .  S
O1039      C1042   1.274       .  A
Ni1040    Ni1041   2.395       .  S
C1042      C1725   1.443       .  S
C1045      C1704   1.445       .  S
C1046      C1677   1.465       .  S
C1046      C1047   1.401       .  A
C1046      C1051   1.396   1_455  A
C1047      C1048   1.396       .  A
C1047      H1052   1.083       .  S
C1048      C1689   1.456       .  S
C1048      C1049   1.387   1_455  A
C1049      C1050   1.382       .  A
C1049      H1053   1.084       .  S
C1050      C1668   1.435       .  S
C1050      C1051   1.387       .  A
C1051      H1054   1.084       .  S
O1055     Ni1063   1.886       .  S
O1055      C1065   1.278       .  A
O1056     Ni1063   1.945       .  S
O1056      C1066   1.291       .  A
O1057     Ni1063   1.958       .  S
O1057      C1067   1.288       .  A
O1058     Ni1063   1.892       .  S
O1058      C1068   1.279       .  A
O1059     Ni1064   1.895       .  S
O1059      C1068   1.277       .  A
O1060     Ni1064   1.937       .  S
O1060      C1067   1.290       .  A
O1061     Ni1064   1.943       .  S
O1061      C1066   1.287       .  A
O1062     Ni1064   1.900       .  S
O1062      C1065   1.277       .  A
Ni1063    Ni1064   2.391       .  S
C1065      C1716   1.454       .  S
C1066      C1244   1.531       .  S
C1068      C1680   1.455       .  S
O1069     Ni1077   1.901       .  S
O1069      C1079   1.279       .  A
O1070     Ni1077   1.945       .  S
O1070      C1080   1.289       .  A
O1071     Ni1077   1.932       .  S
O1071      C1081   1.284       .  A
O1072     Ni1077   1.879       .  S
O1072      C1082   1.276       .  A
O1073     Ni1078   1.893       .  S
O1073      C1082   1.278       .  A
O1074     Ni1078   1.910       .  S
O1074      C1081   1.284       .  A
O1075     Ni1078   1.897       .  S
O1075      C1080   1.278       .  A
O1076     Ni1078   1.875       .  S
O1076      C1079   1.272       .  A
Ni1077    Ni1078   2.400       .  S
C1079      C1665   1.428       .  S
C1082      C1785   1.444       .  S
O1083     Ni1091   1.892       .  S
O1083      C1093   1.277       .  A
O1084     Ni1091   1.969       .  S
O1084      C1094   1.295       .  A
O1085     Ni1091   1.902       .  S
O1085      C1095   1.278       .  A
O1086     Ni1091   1.967       .  S
O1086      C1096   1.293       .  A
O1087     Ni1092   1.941       .  S
O1087      C1096   1.287       .  A
O1088     Ni1092   1.889       .  S
O1088      C1095   1.276       .  A
O1089     Ni1092   1.938       .  S
O1089      C1094   1.287       .  A
O1090     Ni1092   1.884       .  S
O1090      C1093   1.276       .  A
Ni1091    Ni1092   2.391       .  S
C1093      C1797   1.446       .  S
C1095      C1749   1.440       .  S
O1097     Ni1105   1.870       .  S
O1097      C1107   1.271       .  A
O1098     Ni1105   1.933       .  S
O1098      C1108   1.283       .  A
O1099     Ni1105   1.949       .  S
O1099      C1109   1.287       .  A
O1100     Ni1105   1.908       .  S
O1100      C1110   1.282       .  A
O1101     Ni1106   1.867       .  S
O1101      C1110   1.271       .  A
O1102     Ni1106   1.912       .  S
O1102      C1109   1.283       .  A
O1103     Ni1106   1.941       .  S
O1103      C1108   1.288       .  A
O1104     Ni1106   1.905       .  S
O1104      C1107   1.281       .  A
Ni1105    Ni1106   2.388       .  S
C1107      C1740   1.440       .  S
C1110      C1692   1.442       .  S
C1111      C1641   1.456       .  S
C1111      C1112   1.390       .  A
C1111      C1116   1.388       .  A
C1112      C1113   1.393       .  A
C1112      H1117   1.082       .  S
C1113      C1653   1.458       .  S
C1113      C1114   1.396       .  A
C1114      C1115   1.395       .  A
C1114      H1118   1.084       .  S
C1115      C1629   1.456       .  S
C1115      C1116   1.388       .  A
C1116      H1119   1.085       .  S
O1120     Ni1128   1.913       .  S
O1120      C1130   1.283       .  A
O1121     Ni1128   1.961       .  S
O1121      C1131   1.289       .  A
O1122     Ni1128   1.924       .  S
O1122      C1132   1.288       .  A
O1123     Ni1128   1.875       .  S
O1123      C1133   1.273       .  A
O1124     Ni1129   1.894       .  S
O1124      C1133   1.278       .  A
O1125     Ni1129   1.945       .  S
O1125      C1132   1.286       .  A
O1126     Ni1129   1.937       .  S
O1126      C1131   1.290       .  A
O1127     Ni1129   1.879       .  S
O1127      C1130   1.274       .  A
Ni1128    Ni1129   2.392       .  S
C1130      C1620   1.463       .  S
C1133      C1644   1.436       .  S
C1134      C1596   1.461       .  S
C1134      C1135   1.396       .  A
C1134      C1139   1.393       .  A
C1135      C1136   1.393       .  A
C1135      H1140   1.084       .  S
C1136      C1608   1.468       .  S
C1136      C1137   1.395       .  A
C1137      C1138   1.398       .  A
C1137      H1141   1.080       .  S
C1138      C1617   1.473       .  S
C1138      C1139   1.397       .  A
C1139      H1142   1.084       .  S
C1143      C1557   1.476       .  S
C1143      C1144   1.401       .  A
C1143      C1148   1.400       .  A
C1144      C1145   1.395   1_655  A
C1144      H1149   1.083   1_655  S
C1145      C1581   1.466       .  S
C1145      C1146   1.394       .  A
C1146      C1147   1.390   1_455  A
C1146      H1150   1.084       .  S
C1147      C1572   1.473       .  S
C1147      C1148   1.401       .  A
C1148      H1151   1.080       .  S
C1152      C1521   1.452       .  S
C1152      C1153   1.398       .  A
C1152      C1157   1.395       .  A
C1153      C1154   1.399   1_655  A
C1153      H1158   1.081   1_655  S
C1154      C1545   1.468       .  S
C1154      C1155   1.389   1_455  A
C1155      C1156   1.385       .  A
C1155      H1159   1.085       .  S
C1156      C1536   1.439       .  S
C1156      C1157   1.382       .  A
C1157      H1160   1.085       .  S
O1161     Ni1169   1.892       .  S
O1161      C1171   1.277       .  A
O1162     Ni1169   1.947       .  S
O1162      C1172   1.292       .  A
O1163     Ni1169   1.964       .  S
O1163      C1173   1.290       .  A
O1164     Ni1169   1.896       .  S
O1164      C1174   1.280       .  A
O1165     Ni1170   1.884       .  S
O1165      C1174   1.275       .  A
O1166     Ni1170   1.933       .  S
O1166      C1173   1.289       .  A
O1167     Ni1170   1.944       .  S
O1167      C1172   1.287       .  A
O1168     Ni1170   1.903       .  S
O1168      C1171   1.280       .  A
Ni1169    Ni1170   2.391       .  S
C1171      C1584   1.457       .  S
C1174      C1548   1.453       .  S
O1175     Ni1183   1.891       .  S
O1175      C1185   1.276       .  A
O1176     Ni1183   1.947       .  S
O1176      C1186   1.289       .  A
O1177     Ni1183   1.950       .  S
O1177      C1187   1.292       .  A
O1178     Ni1183   1.892       .  S
O1178      C1188   1.277       .  A
O1179     Ni1184   1.895       .  S
O1179      C1188   1.278       .  A
O1180     Ni1184   1.951       .  S
O1180      C1187   1.288       .  A
O1181     Ni1184   1.956       .  S
O1181      C1186   1.286       .  A
O1182     Ni1184   1.891       .  S
O1182      C1185   1.278       .  A
Ni1183    Ni1184   2.389       .  S
C1185      C1524   1.446       .  S
C1187      C1245   1.535       .  S
C1188      C1593   1.455       .  S
O1189     Ni1197   1.896       .  S
O1189      C1199   1.279       .  A
O1190     Ni1197   1.932       .  S
O1190      C1200   1.285       .  A
O1191     Ni1197   1.930       .  S
O1191      C1201   1.287       .  A
O1192     Ni1197   1.882       .  S
O1192      C1202   1.274       .  A
O1193     Ni1198   1.913       .  S
O1193      C1202   1.283       .  A
O1194     Ni1198   1.963       .  S
O1194      C1201   1.291       .  A
O1195     Ni1198   1.944       .  S
O1195      C1200   1.288       .  A
O1196     Ni1198   1.884       .  S
O1196      C1199   1.274       .  A
Ni1197    Ni1198   2.391       .  S
C1199      C1656   1.443       .  S
C1202      C1569   1.455       .  S
O1203     Ni1211   1.891       .  S
O1203      C1213   1.277       .  A
O1204     Ni1211   1.960       .  S
O1204      C1214   1.291       .  A
O1205     Ni1211   1.958       .  S
O1205      C1215   1.292       .  A
O1206     Ni1211   1.902       .  S
O1206      C1216   1.279       .  A
O1207     Ni1212   1.901       .  S
O1207      C1216   1.279       .  A
O1208     Ni1212   1.971       .  S
O1208      C1215   1.294       .  A
O1209     Ni1212   1.960       .  S
O1209      C1214   1.293       .  A
O1210     Ni1212   1.900       .  S
O1210      C1213   1.278       .  A
Ni1211    Ni1212   2.386       .  S
C1213      C1605   1.450       .  S
C1216      C1560   1.470       .  S
O1217     Ni1225   1.865       .  S
O1217      C1227   1.271       .  A
O1218     Ni1225   1.928       .  S
O1218      C1228   1.286       .  A
O1219     Ni1225   1.947       .  S
O1219      C1229   1.283       .  A
O1220     Ni1225   1.903       .  S
O1220      C1230   1.278       .  A
O1221     Ni1226   1.874       .  S
O1221      C1230   1.270       .  A
O1222     Ni1226   1.933       .  S
O1222      C1229   1.287       .  A
O1223     Ni1226   1.964       .  S
O1223      C1228   1.289       .  A
O1224     Ni1226   1.915       .  S
O1224      C1227   1.281       .  A
Ni1225    Ni1226   2.389       .  S
C1227      C1632   1.440       .  S
C1230      C1533   1.431       .  S
O1231     Ni1237   1.896       .  S
O1231      C1252   1.267       .  A
O1232     Ni1255   1.972       .  S
O1232      C1241   1.276       .  A
O1233     Ni1237   1.924   1_655  S
O1233     Ni1255   1.930       .  S
O1233     Ni1249   1.941   1_655  S
O1233      H1256   0.964       .  S
C1234      O1251   1.296       .  A
C1234      O1243   1.276       .  A
C1234      C1347   1.514       .  S
O1235     Ni1254   1.893       .  S
O1235      C1241   1.271       .  A
O1236     Ni1254   1.992       .  S
O1236      C1238   1.287       .  A
Ni1237     O1240   1.939   1_455  S
Ni1237     O1242   1.963       .  S
C1238      O1248   1.272       .  A
O1239     Ni1255   1.985       .  S
O1239      C1245   1.296       .  A
O1240      C1245   1.278       .  A
O1242      C1244   1.277       .  A
O1243     Ni1254   1.918   1_455  S
C1244      O1250   1.274       .  A
H1246      O1247   0.968       .  S
O1247     Ni1255   1.937   1_455  S
O1247     Ni1249   1.930       .  S
O1247     Ni1254   1.917   1_455  S
O1248     Ni1249   1.964   1_655  S
Ni1249     O1253   1.960       .  S
Ni1249     O1251   1.983       .  S
O1250     Ni1255   1.967   1_455  S
C1252      O1253   1.274       .  A
C1257      C1509   1.432       .  S
C1257      C1258   1.373   1_655  A
C1257      C1262   1.380       .  A
C1258      C1259   1.391   1_554  A
C1258      H1263   1.086       .  S
C1259      C1500   1.472       .  S
C1259      C1260   1.405       .  A
C1260      C1261   1.408   1_556  A
C1260      H1264   1.082       .  S
C1261      C1488   1.460       .  S
C1261      C1262   1.396   1_455  A
C1262      H1265   1.085       .  S
O1266     Ni1274   1.903       .  S
O1266      C1276   1.278       .  A
O1267     Ni1274   1.950       .  S
O1267      C1277   1.289       .  A
O1268     Ni1274   1.935       .  S
O1268      C1278   1.290       .  A
O1269     Ni1274   1.879       .  S
O1269      C1279   1.276       .  A
O1270     Ni1275   1.900       .  S
O1270      C1279   1.278       .  A
O1271     Ni1275   1.954       .  S
O1271      C1278   1.290       .  A
O1272     Ni1275   1.974       .  S
O1272      C1277   1.295       .  A
O1273     Ni1275   1.907       .  S
O1273      C1276   1.279       .  A
Ni1274    Ni1275   2.389       .  S
C1276      C1485   1.450       .  S
C1279      C1473   1.460       .  S
C1280      C1461   1.445       .  S
C1280      C1281   1.393   1_455  A
C1280      C1285   1.387       .  A
C1281      C1282   1.394   1_565  A
C1281      H1286   1.084       .  S
C1282      C1452   1.468       .  S
C1282      C1283   1.398   1_655  A
C1283      C1284   1.392       .  A
C1283      H1287   1.083   1_455  S
C1284      C1440   1.456       .  S
C1284      C1285   1.390   1_545  A
C1285      H1288   1.084       .  S
C1289      C1476   1.472       .  S
C1289      C1290   1.400       .  A
C1289      C1294   1.393       .  A
C1290      C1291   1.398       .  A
C1290      H1295   1.082       .  S
C1291      C1425   1.454       .  S
C1291      C1292   1.391       .  A
C1292      C1293   1.385       .  A
C1292      H1296   1.085       .  S
C1293      C1416   1.441       .  S
C1293      C1294   1.385       .  A
C1294      H1297   1.083       .  S
O1298     Ni1306   1.892       .  S
O1298      C1308   1.277       .  A
O1299     Ni1306   1.956       .  S
O1299      C1309   1.292       .  A
O1300     Ni1306   1.960       .  S
O1300      C1310   1.293       .  A
O1301     Ni1306   1.885       .  S
O1301      C1311   1.276       .  A
O1302     Ni1307   1.891       .  S
O1302      C1311   1.277       .  A
O1303     Ni1307   1.951       .  S
O1303      C1310   1.290       .  A
O1304     Ni1307   1.937       .  S
O1304      C1309   1.289       .  A
O1305     Ni1307   1.888       .  S
O1305      C1308   1.277       .  A
Ni1306    Ni1307   2.392       .  S
C1308      C1437   1.450       .  S
C1311      C1413   1.439       .  S
C1312      C1404   1.454   1_554  S
C1312      C1313   1.396       .  A
C1312      C1317   1.387       .  A
C1313      C1314   1.395   1_545  A
C1313      H1318   1.084   1_545  S
C1314      C1389   1.462       .  S
C1314      C1315   1.396   1_565  A
C1315      C1316   1.391       .  A
C1315      H1319   1.084       .  S
C1316      C1377   1.448       .  S
C1316      C1317   1.393       .  A
C1317      H1320   1.085       .  S
O1321     Ni1329   1.886       .  S
O1321      C1331   1.275       .  A
O1322     Ni1329   1.943       .  S
O1322      C1332   1.286       .  A
O1323     Ni1329   1.889       .  S
O1323      C1333   1.277       .  A
O1324     Ni1329   1.951       .  S
O1324      C1334   1.294       .  A
O1325     Ni1330   1.947       .  S
O1325      C1334   1.287       .  A
O1326     Ni1330   1.890       .  S
O1326      C1333   1.277       .  A
O1327     Ni1330   1.937       .  S
O1327      C1332   1.291       .  A
O1328     Ni1330   1.880       .  S
O1328      C1331   1.275       .  A
Ni1329    Ni1330   2.395       .  S
C1331      C1380   1.436       .  S
C1333      C1428   1.443       .  S
O1335     Ni1343   1.862       .  S
O1335      C1345   1.271       .  A
O1336     Ni1343   1.920       .  S
O1336      C1346   1.286       .  A
O1337     Ni1343   1.954       .  S
O1337      C1347   1.286       .  A
O1338     Ni1343   1.916       .  S
O1338      C1348   1.282       .  A
O1339     Ni1344   1.866       .  S
O1339      C1348   1.271       .  A
O1340     Ni1344   1.920       .  S
O1340      C1347   1.284       .  A
O1341     Ni1344   1.957       .  S
O1341      C1346   1.288       .  A
O1342     Ni1344   1.928       .  S
O1342      C1345   1.286       .  A
Ni1343    Ni1344   2.384       .  S
C1345      C1497   1.467       .  S
C1348      C1401   1.453       .  S
O1349     Ni1357   1.916       .  S
O1349      C1359   1.282       .  A
O1350     Ni1357   1.970       .  S
O1350      C1360   1.294       .  A
O1351     Ni1357   1.953       .  S
O1351      C1361   1.289       .  A
O1352     Ni1357   1.879       .  S
O1352      C1362   1.272       .  A
O1353     Ni1358   1.913       .  S
O1353      C1362   1.284       .  A
O1354     Ni1358   1.972       .  S
O1354      C1361   1.297       .  A
O1355     Ni1358   1.954       .  S
O1355      C1360   1.289       .  A
O1356     Ni1358   1.877       .  S
O1356      C1359   1.270       .  A
Ni1357    Ni1358   2.386       .  S
C1359      C1464   1.443       .  S
C1362      C1392   1.462       .  S
O1363     Ni1371   1.925       .  S
O1363      C1373   1.287       .  A
O1364     Ni1371   1.890       .  S
O1364      C1374   1.274       .  A
O1365     Ni1371   1.894       .  S
O1365      C1375   1.276       .  A
O1366     Ni1371   1.931       .  S
O1366      C1376   1.288       .  A
O1367     Ni1372   1.962       .  S
O1367      C1376   1.291       .  A
O1368     Ni1372   1.896       .  S
O1368      C1375   1.280       .  A
O1369     Ni1372   1.874       .  S
O1369      C1374   1.275       .  A
O1370     Ni1372   1.937       .  S
O1370      C1373   1.285       .  A
Ni1371    Ni1372   2.398       .  S
C1374      C1512   1.422       .  S
C1375      C1449   1.453       .  S
C1377      C1378   1.401       .  A
C1377      C1382   1.403       .  A
C1378      C1379   1.377       .  A
C1378      H1383   1.083       .  S
C1379      C1380   1.399       .  A
C1379      C1386   1.443       .  S
C1380      C1381   1.404       .  A
C1381      C1382   1.391       .  A
C1381      H1384   1.085       .  S
C1382      C1385   1.443       .  S
C1385      N1387   1.157       .  T
C1386      N1388   1.156       .  T
C1389      C1390   1.403       .  A
C1389      C1394   1.407       .  A
C1390      C1391   1.389       .  A
C1390      H1395   1.085       .  S
C1391      C1392   1.403       .  A
C1391      C1398   1.434       .  S
C1392      C1393   1.406       .  A
C1393      C1394   1.389       .  A
C1393      H1396   1.085       .  S
C1394      C1397   1.445       .  S
C1397      N1399   1.157       .  T
C1398      N1400   1.153       .  T
C1401      C1402   1.397       .  A
C1401      C1406   1.416       .  A
C1402      C1403   1.394       .  A
C1402      H1407   1.085       .  S
C1403      C1404   1.414       .  A
C1403      C1410   1.444       .  S
C1404      C1405   1.392       .  A
C1405      C1406   1.380       .  A
C1405      H1408   1.086       .  S
C1406      C1409   1.446       .  S
C1409      N1411   1.157       .  T
C1410      N1412   1.157       .  T
C1413      C1414   1.399       .  A
C1413      C1418   1.407       .  A
C1414      C1415   1.383       .  A
C1414      H1419   1.086       .  S
C1415      C1416   1.403       .  A
C1415      C1422   1.445       .  S
C1416      C1417   1.397       .  A
C1417      C1418   1.387       .  A
C1417      H1420   1.085       .  S
C1418      C1421   1.442       .  S
C1421      N1423   1.156       .  T
C1422      N1424   1.157       .  T
C1425      C1426   1.406       .  A
C1425      C1430   1.403       .  A
C1426      C1427   1.387       .  A
C1426      H1431   1.085       .  S
C1427      C1428   1.403       .  A
C1427      C1434   1.444       .  S
C1428      C1429   1.404       .  A
C1429      C1430   1.386       .  A
C1429      H1432   1.086       .  S
C1430      C1433   1.445       .  S
C1433      N1435   1.157       .  T
C1434      N1436   1.157       .  T
C1437      C1438   1.401       .  A
C1437      C1442   1.406       .  A
C1438      C1439   1.389       .  A
C1438      H1443   1.085       .  S
C1439      C1440   1.408       .  A
C1439      C1446   1.445       .  S
C1440      C1441   1.401       .  A
C1441      C1442   1.385       .  A
C1441      H1444   1.084   1_455  S
C1442      C1445   1.443       .  S
C1445      N1447   1.156   1_455  T
C1446      N1448   1.157       .  T
C1449      C1450   1.399       .  A
C1449      C1454   1.409       .  A
C1450      C1451   1.385       .  A
C1450      H1455   1.086       .  S
C1451      C1452   1.411       .  A
C1451      C1458   1.441       .  S
C1452      C1453   1.404       .  A
C1453      C1454   1.390       .  A
C1453      H1456   1.084       .  S
C1454      C1457   1.445       .  S
C1457      N1459   1.157       .  T
C1458      N1460   1.155       .  T
C1461      C1462   1.400       .  A
C1461      C1466   1.398       .  A
C1462      C1463   1.387       .  A
C1462      H1467   1.085       .  S
C1463      C1464   1.406       .  A
C1463      C1470   1.445       .  S
C1464      C1465   1.395       .  A
C1465      C1466   1.389       .  A
C1465      H1468   1.071       .  S
C1466      C1469   1.444   1_455  S
C1469      N1471   1.157       .  T
C1470      N1472   1.157       .  T
C1473      C1474   1.398       .  A
C1473      C1478   1.408       .  A
C1474      C1475   1.380       .  A
C1474      H1479   1.085       .  S
C1475      C1476   1.413       .  A
C1475      C1482   1.446       .  S
C1476      C1477   1.407       .  A
C1477      C1478   1.392       .  A
C1477      H1480   1.083       .  S
C1478      C1481   1.441       .  S
C1481      N1483   1.156       .  T
C1482      N1484   1.157       .  T
C1485      C1486   1.405       .  A
C1485      C1490   1.402       .  A
C1486      C1487   1.399       .  A
C1486      H1491   1.083       .  S
C1487      C1488   1.402       .  A
C1487      C1494   1.441       .  S
C1488      C1489   1.401       .  A
C1489      C1490   1.381       .  A
C1489      H1492   1.086       .  S
C1490      C1493   1.440       .  S
C1493      N1495   1.155       .  T
C1494      N1496   1.157   1_554  T
C1497      C1498   1.412       .  A
C1497      C1502   1.404       .  A
C1498      C1499   1.391       .  A
C1498      H1503   1.085       .  S
C1499      C1500   1.406       .  A
C1499      C1506   1.444       .  S
C1500      C1501   1.410       .  A
C1501      C1502   1.385       .  A
C1501      H1504   1.086   1_455  S
C1502      C1505   1.444       .  S
C1505      N1507   1.157       .  T
C1506      N1508   1.157       .  T
C1509      C1510   1.400       .  A
C1509      C1514   1.402       .  A
C1510      C1511   1.388       .  A
C1510      H1515   1.085   1_655  S
C1511      C1512   1.401       .  A
C1511      C1518   1.445       .  S
C1512      C1513   1.395       .  A
C1513      C1514   1.379       .  A
C1513      H1516   1.081       .  S
C1514      C1517   1.446       .  S
C1517      N1519   1.157       .  T
C1518      N1520   1.157       .  T
C1521      C1522   1.403       .  A
C1521      C1526   1.404       .  A
C1522      C1523   1.384       .  A
C1522      H1527   1.086       .  S
C1523      C1524   1.405       .  A
C1523      C1530   1.446       .  S
C1524      C1525   1.403       .  A
C1525      C1526   1.389       .  A
C1525      H1528   1.085       .  S
C1526      C1529   1.444       .  S
C1529      N1531   1.157       .  T
C1530      N1532   1.157       .  T
C1533      C1534   1.399       .  A
C1533      C1538   1.397       .  A
C1534      C1535   1.388       .  A
C1534      H1539   1.084       .  S
C1535      C1536   1.403       .  A
C1535      C1542   1.444       .  S
C1536      C1537   1.397       .  A
C1537      C1538   1.380       .  A
C1537      H1540   1.086       .  S
C1538      C1541   1.432       .  S
C1541      N1543   1.152       .  T
C1542      N1544   1.157       .  T
C1545      C1546   1.405       .  A
C1545      C1550   1.412       .  A
C1546      C1547   1.380       .  A
C1546      H1551   1.084       .  S
C1547      C1548   1.407       .  A
C1547      C1554   1.446       .  S
C1548      C1549   1.402       .  A
C1549      C1550   1.390       .  A
C1549      H1552   1.085       .  S
C1550      C1553   1.444       .  S
C1553      N1555   1.157       .  T
C1554      N1556   1.157       .  T
C1557      C1558   1.403       .  A
C1557      C1562   1.412       .  A
C1558      C1559   1.388       .  A
C1558      H1563   1.083   1_655  S
C1559      C1560   1.409       .  A
C1559      C1566   1.440       .  S
C1560      C1561   1.404       .  A
C1561      C1562   1.394       .  A
C1561      H1564   1.083       .  S
C1562      C1565   1.445       .  S
C1565      N1567   1.157       .  T
C1566      N1568   1.155   1_655  T
C1569      C1570   1.395       .  A
C1569      C1574   1.411       .  A
C1570      C1571   1.389       .  A
C1570      H1575   1.086       .  S
C1571      C1572   1.418       .  A
C1571      C1578   1.445       .  S
C1572      C1573   1.401       .  A
C1573      C1574   1.389       .  A
C1573      H1576   1.084       .  S
C1574      C1577   1.442       .  S
C1577      N1579   1.156       .  T
C1578      N1580   1.157       .  T
C1581      C1582   1.400       .  A
C1581      C1586   1.409       .  A
C1582      C1583   1.385       .  A
C1582      H1587   1.082       .  S
C1583      C1584   1.408       .  A
C1583      C1590   1.444       .  S
C1584      C1585   1.403       .  A
C1585      C1586   1.392       .  A
C1585      H1588   1.085       .  S
C1586      C1589   1.443       .  S
C1589      N1591   1.157       .  T
C1590      N1592   1.157       .  T
C1593      C1594   1.401       .  A
C1593      C1598   1.410       .  A
C1594      C1595   1.387       .  A
C1594      H1599   1.086       .  S
C1595      C1596   1.411       .  A
C1595      C1602   1.446       .  S
C1596      C1597   1.401       .  A
C1597      C1598   1.388       .  A
C1597      H1600   1.084       .  S
C1598      C1601   1.444       .  S
C1601      N1603   1.157       .  T
C1602      N1604   1.157       .  T
C1605      C1606   1.396       .  A
C1605      C1610   1.407       .  A
C1606      C1607   1.387       .  A
C1606      H1611   1.084       .  S
C1607      C1608   1.415       .  A
C1607      C1614   1.445       .  S
C1608      C1609   1.404       .  A
C1609      C1610   1.390       .  A
C1609      H1612   1.085       .  S
C1610      C1613   1.444       .  S
C1613      N1615   1.157       .  T
C1614      N1616   1.157       .  T
C1617      C1618   1.401       .  A
C1617      C1622   1.412       .  A
C1618      C1619   1.384       .  A
C1618      H1623   1.082       .  S
C1619      C1620   1.414       .  A
C1619      C1626   1.447       .  S
C1620      C1621   1.403       .  A
C1621      C1622   1.392       .  A
C1621      H1624   1.085       .  S
C1622      C1625   1.442       .  S
C1625      N1627   1.156       .  T
C1626      N1628   1.158       .  T
C1629      C1630   1.403       .  A
C1629      C1634   1.412       .  A
C1630      C1631   1.389       .  A
C1630      H1635   1.085       .  S
C1631      C1632   1.400       .  A
C1631      C1638   1.438       .  S
C1632      C1633   1.397       .  A
C1633      C1634   1.383       .  A
C1633      H1636   1.085       .  S
C1634      C1637   1.447       .  S
C1637      N1639   1.158       .  T
C1638      N1640   1.155       .  T
C1641      C1642   1.405       .  A
C1641      C1646   1.404       .  A
C1642      C1643   1.382       .  A
C1642      H1647   1.085       .  S
C1643      C1644   1.402       .  A
C1643      C1650   1.445       .  S
C1644      C1645   1.400       .  A
C1645      C1646   1.385       .  A
C1645      H1648   1.086       .  S
C1646      C1649   1.440       .  S
C1649      N1651   1.155       .  T
C1650      N1652   1.157       .  T
C1653      C1654   1.400       .  A
C1653      C1658   1.413       .  A
C1654      C1655   1.388       .  A
C1654      H1659   1.085       .  S
C1655      C1656   1.407       .  A
C1655      C1662   1.444       .  S
C1656      C1657   1.396       .  A
C1657      C1658   1.385       .  A
C1657      H1660   1.086       .  S
C1658      C1661   1.446       .  S
C1661      N1663   1.157       .  T
C1662      N1664   1.157       .  T
C1665      C1666   1.399       .  A
C1665      C1670   1.399       .  A
C1666      C1667   1.385       .  A
C1666      H1671   1.079       .  S
C1667      C1668   1.396       .  A
C1667      C1674   1.444       .  S
C1668      C1669   1.403       .  A
C1669      C1670   1.384       .  A
C1669      H1672   1.086       .  S
C1670      C1673   1.446       .  S
C1673      N1675   1.157       .  T
C1674      N1676   1.157       .  T
C1677      C1678   1.404       .  A
C1677      C1682   1.410       .  A
C1678      C1679   1.388       .  A
C1678      H1683   1.084       .  S
C1679      C1680   1.409       .  A
C1679      C1686   1.444       .  S
C1680      C1681   1.401       .  A
C1681      C1682   1.385       .  A
C1681      H1684   1.085       .  S
C1682      C1685   1.445       .  S
C1685      N1687   1.157       .  T
C1686      N1688   1.157       .  T
C1689      C1690   1.398       .  A
C1689      C1694   1.413       .  A
C1690      C1691   1.382       .  A
C1690      H1695   1.085       .  S
C1691      C1692   1.410       .  A
C1691      C1698   1.445       .  S
C1692      C1693   1.396       .  A
C1693      C1694   1.388       .  A
C1693      H1696   1.086       .  S
C1694      C1697   1.446       .  S
C1697      N1699   1.157       .  T
C1698      N1700   1.157       .  T
C1701      C1702   1.400       .  A
C1701      C1706   1.405       .  A
C1702      C1703   1.389       .  A
C1702      H1707   1.084       .  S
C1703      C1704   1.406       .  A
C1703      C1710   1.441       .  S
C1704      C1705   1.399       .  A
C1705      C1706   1.383       .  A
C1705      H1708   1.082       .  S
C1706      C1709   1.446       .  S
C1709      N1711   1.157       .  T
C1710      N1712   1.156       .  T
C1713      C1714   1.404       .  A
C1713      C1718   1.411       .  A
C1714      C1715   1.391       .  A
C1714      H1719   1.084       .  S
C1715      C1716   1.408       .  A
C1715      C1722   1.443       .  S
C1716      C1717   1.397       .  A
C1717      C1718   1.383       .  A
C1717      H1720   1.080       .  S
C1718      C1721   1.446       .  S
C1721      N1723   1.157       .  T
C1722      N1724   1.157       .  T
C1725      C1726   1.396       .  A
C1725      C1730   1.411       .  A
C1726      C1727   1.383       .  A
C1726      H1731   1.081       .  S
C1727      C1728   1.410       .  A
C1727      C1734   1.445       .  S
C1728      C1729   1.399       .  A
C1729      C1730   1.379       .  A
C1729      H1732   1.086       .  S
C1730      C1733   1.447       .  S
C1733      N1735   1.158       .  T
C1734      N1736   1.157       .  T
C1737      C1738   1.401       .  A
C1737      C1742   1.403       .  A
C1738      C1739   1.384       .  A
C1738      H1743   1.086       .  S
C1739      C1740   1.404       .  A
C1739      C1746   1.444       .  S
C1740      C1741   1.402       .  A
C1741      C1742   1.386       .  A
C1741      H1744   1.086       .  S
C1742      C1745   1.445       .  S
C1745      N1747   1.157       .  T
C1746      N1748   1.157       .  T
C1749      C1750   1.399       .  A
C1749      C1754   1.405       .  A
C1750      C1751   1.388       .  A
C1750      H1755   1.076       .  S
C1751      C1752   1.399       .  A
C1751      C1758   1.443       .  S
C1752      C1753   1.400       .  A
C1753      C1754   1.385       .  A
C1753      H1756   1.086       .  S
C1754      C1757   1.446       .  S
C1757      N1759   1.157       .  T
C1758      N1760   1.157       .  T
C1761      C1762   1.398       .  A
C1761      C1766   1.405       .  A
C1762      C1763   1.387       .  A
C1762      H1767   1.086       .  S
C1763      C1764   1.409       .  A
C1763      C1770   1.444       .  S
C1764      C1765   1.404       .  A
C1765      C1766   1.384       .  A
C1765      H1768   1.085       .  S
C1766      C1769   1.446       .  S
C1769      N1771   1.157       .  T
C1770      N1772   1.157       .  T
C1773      C1774   1.400       .  A
C1773      C1778   1.400       .  A
C1774      C1775   1.390       .  A
C1774      H1779   1.083       .  S
C1775      C1776   1.402       .  A
C1775      C1782   1.444       .  S
C1776      C1777   1.397       .  A
C1777      C1778   1.382       .  A
C1777      H1780   1.086       .  S
C1778      C1781   1.435       .  S
C1781      N1783   1.154       .  T
C1782      N1784   1.157       .  T
C1785      C1786   1.398       .  A
C1785      C1790   1.408       .  A
C1786      C1787   1.382       .  A
C1786      H1791   1.086       .  S
C1787      C1788   1.410       .  A
C1787      C1794   1.445       .  S
C1788      C1789   1.401       .  A
C1789      C1790   1.384       .  A
C1789      H1792   1.086       .  S
C1790      C1793   1.443       .  S
C1793      N1795   1.157       .  T
C1794      N1796   1.157       .  T
C1797      C1798   1.403       .  A
C1797      C1802   1.410       .  A
C1798      C1799   1.389       .  A
C1798      H1803   1.085       .  S
C1799      C1800   1.402       .  A
C1799      C1806   1.441       .  S
C1800      C1801   1.396       .  A
C1801      C1802   1.381       .  A
C1801      H1804   1.084       .  S
C1802      C1805   1.446       .  S
C1805      N1807   1.157       .  T
C1806      N1808   1.156       .  T
C1809      C1810   1.400       .  A
C1809      C1814   1.408       .  A
C1810      C1811   1.389       .  A
C1810      H1815   1.085       .  S
C1811      C1812   1.402       .  A
C1811      C1818   1.442       .  S
C1812      C1813   1.392       .  A
C1813      C1814   1.374       .  A
C1813      H1816   1.086       .  S
C1814      C1817   1.448       .  S
C1817      N1819   1.157       .  T
C1818      N1820   1.156       .  T
C1821      C1822   1.395       .  A
C1821      C1826   1.406       .  A
C1822      C1823   1.377       .  A
C1822      H1827   1.086       .  S
C1823      C1824   1.405       .  A
C1823      C1830   1.440       .  S
C1824      C1825   1.399       .  A
C1825      C1826   1.384       .  A
C1825      H1828   1.086       .  S
C1826      C1829   1.445       .  S
C1829      N1831   1.157       .  T
C1830      N1832   1.155       .  T
C1833      C1834   1.397       .  A
C1833      C1838   1.402       .  A
C1834      C1835   1.379       .  A
C1834      H1839   1.086       .  S
C1835      C1836   1.406       .  A
C1835      C1842   1.446       .  S
C1836      C1837   1.402       .  A
C1837      C1838   1.383       .  A
C1837      H1840   1.085       .  S
C1838      C1841   1.446       .  S
C1841      N1843   1.157       .  T
C1842      N1844   1.157       .  T
C1845      C1846   1.396       .  A
C1845      C1850   1.406       .  A
C1846      C1847   1.381       .  A
C1846      H1851   1.084       .  S
C1847      C1848   1.408       .  A
C1847      C1854   1.445       .  S
C1848      C1849   1.398       .  A
C1849      C1850   1.384       .  A
C1849      H1852   1.085       .  S
C1850      C1853   1.446       .  S
C1853      N1855   1.157       .  T
C1854      N1856   1.157       .  T
C1857      C1858   1.404       .  A
C1857      C1862   1.407       .  A
C1858      C1859   1.387       .  A
C1858      H1863   1.085       .  S
C1859      C1860   1.401       .  A
C1859      C1866   1.440       .  S
C1860      C1861   1.399       .  A
C1861      C1862   1.379       .  A
C1861      H1864   1.085       .  S
C1862      C1865   1.447       .  S
C1865      N1867   1.157       .  T
C1866      N1868   1.156       .  T
C1869      C1870   1.395       .  A
C1869      C1874   1.404       .  A
C1870      C1871   1.383       .  A
C1870      H1875   1.085       .  S
C1871      C1872   1.408       .  A
C1871      C1878   1.446       .  S
C1872      C1873   1.399       .  A
C1873      C1874   1.387       .  A
C1873      H1876   1.085       .  S
C1874      C1877   1.444       .  S
C1877      N1879   1.157       .  T
C1878      N1880   1.157       .  T
C1881      C1882   1.404       .  A
C1881      C1886   1.411       .  A
C1882      C1883   1.387       .  A
C1882      H1887   1.085       .  S
C1883      C1884   1.406       .  A
C1883      C1890   1.441       .  S
C1884      C1885   1.403       .  A
C1885      C1886   1.395       .  A
C1885      H1888   1.084       .  S
C1886      C1889   1.444       .  S
C1889      N1891   1.157       .  T
C1890      N1892   1.156       .  T
C1893      C1894   1.401       .  A
C1893      C1898   1.410       .  A
C1894      C1895   1.391       .  A
C1894      H1899   1.085       .  S
C1895      C1896   1.410       .  A
C1895      C1902   1.444       .  S
C1896      C1897   1.398       .  A
C1897      C1898   1.385       .  A
C1897      H1900   1.086       .  S
C1898      C1901   1.446   1_565  S
C1901      N1903   1.157       .  T
C1902      N1904   1.157       .  T
C1905      C1906   1.401       .  A
C1905      C1910   1.408       .  A
C1906      C1907   1.382       .  A
C1906      H1911   1.085       .  S
C1907      C1908   1.409       .  A
C1907      C1914   1.447       .  S
C1908      C1909   1.402       .  A
C1909      C1910   1.393       .  A
C1909      H1912   1.085       .  S
C1910      C1913   1.441       .  S
C1913      N1915   1.156       .  T
C1914      N1916   1.157       .  T
C1917      C1918   1.401       .  A
C1917      C1922   1.407       .  A
C1918      C1919   1.388       .  A
C1918      H1923   1.085       .  S
C1919      C1920   1.406       .  A
C1919      C1926   1.446       .  S
C1920      C1921   1.399       .  A
C1921      C1922   1.392       .  A
C1921      H1924   1.085       .  S
C1922      C1925   1.442       .  S
C1925      N1927   1.156       .  T
C1926      N1928   1.157       .  T
C1929      C1930   1.405       .  A
C1929      C1934   1.415       .  A
C1930      C1931   1.393       .  A
C1930      H1935   1.085       .  S
C1931      C1932   1.403       .  A
C1931      C1938   1.439       .  S
C1932      C1933   1.398       .  A
C1933      C1934   1.394       .  A
C1933      H1936   1.085       .  S
C1934      C1937   1.445       .  S
C1937      N1939   1.157       .  T
C1938      N1940   1.156       .  T
C1941      C1942   1.404       .  A
C1941      C1946   1.409       .  A
C1942      C1943   1.390       .  A
C1942      H1947   1.085       .  S
C1943      C1944   1.402       .  A
C1943      C1950   1.442       .  S
C1944      C1945   1.400       .  A
C1945      C1946   1.390       .  A
C1945      H1948   1.085       .  S
C1946      C1949   1.445   1_565  S
C1949      N1951   1.157       .  T
C1950      N1952   1.156       .  T
C1953      C1954   1.394       .  A
C1953      C1958   1.405       .  A
C1954      C1955   1.384       .  A
C1954      H1959   1.085       .  S
C1955      C1956   1.408       .  A
C1955      C1962   1.445       .  S
C1956      C1957   1.400       .  A
C1957      C1958   1.391       .  A
C1957      H1960   1.085       .  S
C1958      C1961   1.445       .  S
C1961      N1963   1.157       .  T
C1962      N1964   1.157       .  T
C1965      C1966   1.406       .  A
C1965      C1970   1.412       .  A
C1966      C1967   1.389       .  A
C1966      H1971   1.085       .  S
C1967      C1968   1.409       .  A
C1967      C1974   1.441       .  S
C1968      C1969   1.405       .  A
C1969      C1970   1.392       .  A
C1969      H1972   1.085       .  S
C1970      C1973   1.444       .  S
C1973      N1975   1.157       .  T
C1974      N1976   1.156       .  T
C1977      C1978   1.395       .  A
C1977      C1982   1.409       .  A
C1978      C1979   1.386       .  A
C1978      H1983   1.086       .  S
C1979      C1980   1.409       .  A
C1979      C1986   1.436       .  S
C1980      C1981   1.400       .  A
C1981      C1982   1.384       .  A
C1981      H1984   1.086       .  S
C1982      C1985   1.446       .  S
C1985      N1987   1.157       .  T
C1986      N1988   1.154       .  T
C1989      C1990   1.401       .  A
C1989      C1994   1.409       .  A
C1990      C1991   1.381       .  A
C1990      H1995   1.085       .  S
C1991      C1992   1.407       .  A
C1991      C1998   1.446       .  S
C1992      C1993   1.400       .  A
C1993      C1994   1.389       .  A
C1993      H1996   1.085       .  S
C1994      C1997   1.445   1_554  S
C1997      N1999   1.157       .  T
C1998      N2000   1.157       .  T
C2001      C2002   1.404       .  A
C2001      C2006   1.410       .  A
C2002      C2003   1.385       .  A
C2002      H2007   1.083       .  S
C2003      C2004   1.404       .  A
C2003      C2010   1.444       .  S
C2004      C2005   1.402       .  A
C2005      C2006   1.389       .  A
C2005      H2008   1.086       .  S
C2006      C2009   1.445       .  S
C2009      N2011   1.157   1_556  T
C2010      N2012   1.157       .  T
C2013      C2014   1.406       .  A
C2013      C2018   1.414       .  A
C2014      C2015   1.388       .  A
C2014      H2019   1.085       .  S
C2015      C2016   1.406       .  A
C2015      C2022   1.446       .  S
C2016      C2017   1.396       .  A
C2017      C2018   1.386       .  A
C2017      H2020   1.086       .  S
C2018      C2021   1.440   1_554  S
C2021      N2023   1.156       .  T
C2022      N2024   1.157       .  T
C2025      C2026   1.400       .  A
C2025      C2030   1.404       .  A
C2026      C2027   1.389       .  A
C2026      H2031   1.083       .  S
C2027      C2028   1.405       .  A
C2027      C2034   1.444       .  S
C2028      C2029   1.401       .  A
C2029      C2030   1.384       .  A
C2029      H2032   1.085       .  S
C2030      C2033   1.446       .  S
C2033      N2035   1.157       .  T
C2034      N2036   1.157       .  T
C2037      C2038   1.395       .  A
C2037      C2042   1.406       .  A
C2038      C2039   1.382       .  A
C2038      H2043   1.078       .  S
C2039      C2040   1.403       .  A
C2039      C2046   1.444       .  S
C2040      C2041   1.400       .  A
C2041      C2042   1.389       .  A
C2041      H2044   1.085       .  S
C2042      C2045   1.446       .  S
C2045      N2047   1.157       .  T
C2046      N2048   1.157       .  T
C2049      C2050   1.400       .  A
C2049      C2054   1.416       .  A
C2050      C2051   1.397       .  A
C2050      H2055   1.085       .  S
C2051      C2052   1.413       .  A
C2051      C2058   1.441       .  S
C2052      C2053   1.396       .  A
C2053      C2054   1.386       .  A
C2053      H2056   1.084       .  S
C2054      C2057   1.447       .  S
C2057      N2059   1.157       .  T
C2058      N2060   1.156       .  T
C2061      C2062   1.396       .  A
C2061      C2066   1.416       .  A
C2062      C2063   1.385       .  A
C2062      H2067   1.085       .  S
C2063      C2064   1.409       .  A
C2063      C2070   1.441       .  S
C2064      C2065   1.393       .  A
C2065      C2066   1.387       .  A
C2065      H2068   1.085       .  S
C2066      C2069   1.445       .  S
C2069      N2071   1.157       .  T
C2070      N2072   1.155       .  T
C2073      C2074   1.400       .  A
C2073      C2078   1.403       .  A
C2074      C2075   1.387       .  A
C2074      H2079   1.085       .  S
C2075      C2076   1.401       .  A
C2075      C2082   1.442       .  S
C2076      C2077   1.398       .  A
C2077      C2078   1.381       .  A
C2077      H2080   1.084       .  S
C2078      C2081   1.447       .  S
C2081      N2083   1.157       .  T
C2082      N2084   1.156       .  T
C2085      C2086   1.400       .  A
C2085      C2090   1.403       .  A
C2086      C2087   1.394       .  A
C2086      H2091   1.084       .  S
C2087      C2088   1.410       .  A
C2087      C2094   1.444       .  S
C2088      C2089   1.401       .  A
C2089      C2090   1.386       .  A
C2089      H2092   1.086       .  S
C2090      C2093   1.440       .  S
C2093      N2095   1.155       .  T
C2094      N2096   1.157       .  T
C2097      C2098   1.393       .  A
C2097      C2102   1.409       .  A
C2098      C2099   1.384       .  A
C2098      H2103   1.087       .  S
C2099      C2100   1.405       .  A
C2099      C2106   1.428       .  S
C2100      C2101   1.404       .  A
C2101      C2102   1.397       .  A
C2101      H2104   1.085       .  S
C2102      C2105   1.443       .  S
C2105      N2107   1.157       .  T
C2106      N2108   1.152   1_556  T
C2109      C2110   1.393       .  A
C2109      C2114   1.406       .  A
C2110      C2111   1.382       .  A
C2110      H2115   1.086       .  S
C2111      C2112   1.405       .  A
C2111      C2118   1.443       .  S
C2112      C2113   1.399       .  A
C2113      C2114   1.391       .  A
C2113      H2116   1.085       .  S
C2114      C2117   1.445       .  S
C2117      N2119   1.157       .  T
C2118      N2120   1.156       .  T
C2121      C2122   1.404       .  A
C2121      C2126   1.412       .  A
C2122      C2123   1.396       .  A
C2122      H2127   1.085       .  S
C2123      C2124   1.409       .  A
C2123      C2130   1.445       .  S
C2124      C2125   1.397       .  A
C2125      C2126   1.387       .  A
C2125      H2128   1.083       .  S
C2126      C2129   1.446       .  S
C2129      N2131   1.157   1_554  T
C2130      N2132   1.157       .  T
C2133      C2134   1.397       .  A
C2133      C2138   1.403       .  A
C2134      C2135   1.383       .  A
C2134      H2139   1.085       .  S
C2135      C2136   1.410       .  A
C2135      C2142   1.448       .  S
C2136      C2137   1.401       .  A
C2137      C2138   1.392       .  A
C2137      H2140   1.085       .  S
C2138      C2141   1.442       .  S
C2141      N2143   1.156       .  T
C2142      N2144   1.158       .  T
C2145      C2146   1.398       .  A
C2145      C2150   1.415       .  A
C2146      C2147   1.385       .  A
C2146      H2151   1.085       .  S
C2147      C2148   1.408       .  A
C2147      C2154   1.441       .  S
C2148      C2149   1.396       .  A
C2149      C2150   1.391       .  A
C2149      H2152   1.086       .  S
C2150      C2153   1.445       .  S
C2153      N2155   1.157       .  T
C2154      N2156   1.155       .  T
C2157      C2158   1.399       .  A
C2157      C2162   1.408       .  A
C2158      C2159   1.389       .  A
C2158      H2163   1.085       .  S
C2159      C2160   1.408       .  A
C2159      C2166   1.447       .  S
C2160      C2161   1.396       .  A
C2161      C2162   1.391       .  A
C2161      H2164   1.082       .  S
C2162      C2165   1.444       .  S
C2165      N2167   1.157       .  T
C2166      N2168   1.157       .  T
C2169      C2170   1.395       .  A
C2169      C2174   1.410       .  A
C2170      C2171   1.391       .  A
C2170      H2175   1.085       .  S
C2171      C2172   1.409       .  A
C2171      C2178   1.445       .  S
C2172      C2173   1.393       .  A
C2173      C2174   1.385       .  A
C2173      H2176   1.086       .  S
C2174      C2177   1.446       .  S
C2177      N2179   1.157   1_556  T
C2178      N2180   1.157       .  T
C2181      C2182   1.399       .  A
C2181      C2186   1.412       .  A
C2182      C2183   1.381       .  A
C2182      H2187   1.086       .  S
C2183      C2184   1.413       .  A
C2183      C2190   1.447       .  S
C2184      C2185   1.395       .  A
C2185      C2186   1.386       .  A
C2185      H2188   1.081       .  S
C2186      C2189   1.443       .  S
C2189      N2191   1.157       .  T
C2190      N2192   1.158       .  T
C2193      C2194   1.403       .  A
C2193      C2198   1.411       .  A
C2194      C2195   1.391       .  A
C2194      H2199   1.085       .  S
C2195      C2196   1.407       .  A
C2195      C2202   1.440       .  S
C2196      C2197   1.403       .  A
C2197      C2198   1.390       .  A
C2197      H2200   1.085       .  S
C2198      C2201   1.445       .  S
C2201      N2203   1.157       .  T
C2202      N2204   1.155       .  T
C2205      C2206   1.398       .  A
C2205      C2210   1.406       .  A
C2206      C2207   1.392       .  A
C2206      H2211   1.085       .  S
C2207      C2208   1.408       .  A
C2207      C2214   1.445       .  S
C2208      C2209   1.397       .  A
C2209      C2210   1.391       .  A
C2209      H2212   1.084       .  S
C2210      C2213   1.444       .  S
C2213      N2215   1.157       .  T
C2214      N2216   1.157       .  T
C2217      C2218   1.401       .  A
C2217      C2222   1.405       .  A
C2218      C2219   1.392       .  A
C2218      H2223   1.085       .  S
C2219      C2220   1.411       .  A
C2219      C2226   1.445       .  S
C2220      C2221   1.402       .  A
C2221      C2222   1.384       .  A
C2221      H2224   1.086       .  S
C2222      C2225   1.440       .  S
C2225      N2227   1.155       .  T
C2226      N2228   1.157       .  T
C2229      C2230   1.403       .  A
C2229      C2234   1.407       .  A
C2230      C2231   1.388       .  A
C2230      H2235   1.084       .  S
C2231      C2232   1.408       .  A
C2231      C2238   1.446       .  S
C2232      C2233   1.399       .  A
C2233      C2234   1.388       .  A
C2233      H2236   1.085       .  S
C2234      C2237   1.441       .  S
C2237      N2239   1.156       .  T
C2238      N2240   1.157       .  T
C2241      C2242   1.398       .  A
C2241      C2246   1.406       .  A
C2242      C2243   1.386       .  A
C2242      H2247   1.086       .  S
C2243      C2244   1.406       .  A
C2243      C2250   1.444       .  S
C2244      C2245   1.401       .  A
C2245      C2246   1.395       .  A
C2245      H2248   1.082       .  S
C2246      C2249   1.444       .  S
C2249      N2251   1.157       .  T
C2250      N2252   1.157       .  T
C2253      C2254   1.396       .  A
C2253      C2258   1.411       .  A
C2254      C2255   1.382       .  A
C2254      H2259   1.086       .  S
C2255      C2256   1.406       .  A
C2255      C2262   1.445       .  S
C2256      C2257   1.395       .  A
C2257      C2258   1.388       .  A
C2257      H2260   1.085   1_565  S
C2258      C2261   1.445       .  S
C2261      N2263   1.157   1_565  T
C2262      N2264   1.157       .  T
C2265      C2266   1.399       .  A
C2265      C2270   1.404       .  A
C2266      C2267   1.386       .  A
C2266      H2271   1.086       .  S
C2267      C2268   1.399       .  A
C2267      C2274   1.437       .  S
C2268      C2269   1.401       .  A
C2269      C2270   1.390       .  A
C2269      H2272   1.086       .  S
C2270      C2273   1.444   1_545  S
C2273      N2275   1.157       .  T
C2274      N2276   1.155       .  T
C2277      C2278   1.406       .  A
C2277      C2282   1.419       .  A
C2278      C2279   1.388       .  A
C2278      H2283   1.085   1_565  S
C2279      C2280   1.410       .  A
C2279      C2286   1.446       .  S
C2280      C2281   1.396       .  A
C2281      C2282   1.383       .  A
C2281      H2284   1.086       .  S
C2282      C2285   1.443       .  S
C2285      N2287   1.157       .  T
C2286      N2288   1.158       .  T
C2289      C2290   1.402       .  A
C2289      C2294   1.410       .  A
C2290      C2291   1.392       .  A
C2290      H2295   1.083       .  S
C2291      C2292   1.406       .  A
C2291      C2298   1.444       .  S
C2292      C2293   1.388       .  A
C2293      C2294   1.377       .  A
C2293      H2296   1.087       .  S
C2294      C2297   1.432       .  S
C2297      N2299   1.154       .  T
C2298      N2300   1.157       .  T
C2301      C2302   1.395       .  A
C2301      C2306   1.401       .  A
C2302      C2303   1.381       .  A
C2302      H2307   1.086       .  S
C2303      C2304   1.403       .  A
C2303      C2310   1.440       .  S
C2304      C2305   1.399       .  A
C2305      C2306   1.385       .  A
C2305      H2308   1.083       .  S
C2306      C2309   1.444       .  S
C2309      N2311   1.157       .  T
C2310      N2312   1.156       .  T
C2313      C2314   1.395       .  A
C2313      C2318   1.409       .  A
C2314      C2315   1.379       .  A
C2314      H2319   1.086       .  S
C2315      C2316   1.421       .  A
C2315      C2322   1.448       .  S
C2316      C2317   1.405       .  A
C2317      C2318   1.391       .  A
C2317      H2320   1.084       .  S
C2318      C2321   1.441       .  S
C2321      N2323   1.156   1_565  T
C2322      N2324   1.157       .  T
C2325      C2326   1.408       .  A
C2325      C2330   1.410       .  A
C2326      C2327   1.392       .  A
C2326      H2331   1.085       .  S
C2327      C2328   1.406       .  A
C2327      C2334   1.444       .  S
C2328      C2329   1.407       .  A
C2329      C2330   1.384       .  A
C2329      H2332   1.084       .  S
C2330      C2333   1.445       .  S
C2333      N2335   1.157       .  T
C2334      N2336   1.157   1_545  T
C2337      C2338   1.399       .  A
C2337      C2342   1.401       .  A
C2338      C2339   1.389       .  A
C2338      H2343   1.084       .  S
C2339      C2340   1.404       .  A
C2339      C2346   1.443       .  S
C2340      C2341   1.402       .  A
C2341      C2342   1.385       .  A
C2341      H2344   1.086       .  S
C2342      C2345   1.444       .  S
C2345      N2347   1.157       .  T
C2346      N2348   1.157       .  T
C2349      C2350   1.399       .  A
C2349      C2354   1.403       .  A
C2350      C2351   1.388       .  A
C2350      H2355   1.086       .  S
C2351      C2352   1.410       .  A
C2351      C2358   1.445       .  S
C2352      C2353   1.404       .  A
C2353      C2354   1.383       .  A
C2353      H2356   1.085       .  S
C2354      C2357   1.446       .  S
C2357      N2359   1.157       .  T
C2358      N2360   1.157       .  T
C2361      C2362   1.404       .  A
C2361      C2366   1.411       .  A
C2362      C2363   1.389       .  A
C2362      H2367   1.085       .  S
C2363      C2364   1.404       .  A
C2363      C2370   1.440       .  S
C2364      C2365   1.398       .  A
C2365      C2366   1.383       .  A
C2365      H2368   1.085       .  S
C2366      C2369   1.445       .  S
C2369      N2371   1.157       .  T
C2370      N2372   1.155       .  T
C2373      C2374   1.403       .  A
C2373      C2378   1.410       .  A
C2374      C2375   1.386       .  A
C2374      H2379   1.078       .  S
C2375      C2376   1.412       .  A
C2375      C2382   1.446       .  S
C2376      C2377   1.404       .  A
C2377      C2378   1.387       .  A
C2377      H2380   1.080       .  S
C2378      C2381   1.446       .  S
C2381      N2383   1.157       .  T
C2382      N2384   1.158       .  T
C2385      C2386   1.396       .  A
C2385      C2390   1.412       .  A
C2386      C2387   1.386       .  A
C2386      H2391   1.085       .  S
C2387      C2388   1.415       .  A
C2387      C2394   1.447       .  S
C2388      C2389   1.397       .  A
C2389      C2390   1.390       .  A
C2389      H2392   1.085       .  S
C2390      C2393   1.442   1_655  S
C2393      N2395   1.156       .  T
C2394      N2396   1.157       .  T
C2397      C2398   1.400       .  A
C2397      C2402   1.409       .  A
C2398      C2399   1.382       .  A
C2398      H2403   1.084       .  S
C2399      C2400   1.405       .  A
C2399      C2406   1.444       .  S
C2400      C2401   1.399       .  A
C2401      C2402   1.384       .  A
C2401      H2404   1.086       .  S
C2402      C2405   1.445       .  S
C2405      N2407   1.157   1_455  T
C2406      N2408   1.156       .  T
C2409      C2410   1.402       .  A
C2409      C2414   1.411       .  A
C2410      C2411   1.386       .  A
C2410      H2415   1.085   1_655  S
C2411      C2412   1.400       .  A
C2411      C2418   1.437       .  S
C2412      C2413   1.397       .  A
C2413      C2414   1.387       .  A
C2413      H2416   1.085       .  S
C2414      C2417   1.446       .  S
C2417      N2419   1.157       .  T
C2418      N2420   1.155   1_655  T
C2421      C2422   1.394       .  A
C2421      C2426   1.406       .  A
C2422      C2423   1.375       .  A
C2422      H2427   1.084       .  S
C2423      C2424   1.413       .  A
C2423      C2430   1.448       .  S
C2424      C2425   1.402       .  A
C2425      C2426   1.394       .  A
C2425      H2428   1.085       .  S
C2426      C2429   1.439   1_655  S
C2429      N2431   1.155       .  T
C2430      N2432   1.157       .  T
C2433      C2434   1.396       .  A
C2433      C2438   1.408       .  A
C2434      C2435   1.382       .  A
C2434      H2439   1.086   1_655  S
C2435      C2436   1.404       .  A
C2435      C2442   1.437       .  S
C2436      C2437   1.397       .  A
C2437      C2438   1.385       .  A
C2437      H2440   1.086       .  S
C2438      C2441   1.445       .  S
C2441      N2443   1.157       .  T
C2442      N2444   1.154       .  T
C2445      C2446   1.400       .  A
C2445      C2450   1.411       .  A
C2446      C2447   1.385       .  A
C2446      H2451   1.085       .  S
C2447      C2448   1.407       .  A
C2447      C2454   1.446       .  S
C2448      C2449   1.395       .  A
C2449      C2450   1.383       .  A
C2449      H2452   1.086       .  S
C2450      C2453   1.443   1_556  S
C2453      N2455   1.156       .  T
C2454      N2456   1.157       .  T
C2457      C2458   1.398       .  A
C2457      C2462   1.406       .  A
C2458      C2459   1.391       .  A
C2458      H2463   1.085       .  S
C2459      C2460   1.414       .  A
C2459      C2466   1.445       .  S
C2460      C2461   1.397       .  A
C2461      C2462   1.384       .  A
C2461      H2464   1.080       .  S
C2462      C2465   1.443       .  S
C2465      N2467   1.156       .  T
C2466      N2468   1.157       .  T
C2469      C2470   1.410       .  A
C2469      C2474   1.415       .  A
C2470      C2471   1.394       .  A
C2470      H2475   1.083   1_565  S
C2471      C2472   1.411       .  A
C2471      C2478   1.445       .  S
C2472      C2473   1.401       .  A
C2473      C2474   1.384       .  A
C2473      H2476   1.084       .  S
C2474      C2477   1.449       .  S
C2477      N2479   1.158       .  T
C2478      N2480   1.158       .  T
C2481      C2482   1.399       .  A
C2481      C2486   1.398       .  A
C2482      C2483   1.382       .  A
C2482      H2487   1.086       .  S
C2483      C2484   1.403       .  A
C2483      C2490   1.445       .  S
C2484      C2485   1.396       .  A
C2485      C2486   1.392       .  A
C2485      H2488   1.074       .  S
C2486      C2489   1.444       .  S
C2489      N2491   1.157   1_565  T
C2490      N2492   1.157       .  T
C2493      C2494   1.392       .  A
C2493      C2498   1.413       .  A
C2494      C2495   1.381       .  A
C2494      H2499   1.086       .  S
C2495      C2496   1.409       .  A
C2495      C2502   1.437       .  S
C2496      C2497   1.394       .  A
C2497      C2498   1.386       .  A
C2497      H2500   1.083       .  S
C2498      C2501   1.446       .  S
C2501      N2503   1.157       .  T
C2502      N2504   1.154       .  T
C2505      C2506   1.397       .  A
C2505      C2510   1.400       .  A
C2506      C2507   1.378       .  A
C2506      H2511   1.085       .  S
C2507      C2508   1.404       .  A
C2507      C2514   1.445       .  S
C2508      C2509   1.398       .  A
C2509      C2510   1.384       .  A
C2509      H2512   1.085       .  S
C2510      C2513   1.441       .  S
C2513      N2515   1.156       .  T
C2514      N2516   1.157       .  T
C2517      C2518   1.405       .  A
C2517      C2522   1.409       .  A
C2518      C2519   1.389       .  A
C2518      H2523   1.085       .  S
C2519      C2520   1.401       .  A
C2519      C2526   1.442       .  S
C2520      C2521   1.399       .  A
C2521      C2522   1.385       .  A
C2521      H2524   1.086       .  S
C2522      C2525   1.446       .  S
C2525      N2527   1.157       .  T
C2526      N2528   1.156       .  T
