geometry optimzed in LAMMPS
_audit_creation_date              2020-11-30 
_audit_creation_method            'lammps2cif' 
_symmetry_space_group_name_H-M    'P1' 
_symmetry_Int_Tables_number       1 
_symmetry_cell_setting            triclinic 
loop_ 
_symmetry_equiv_pos_as_xyz 
  x,y,z 
_cell_length_a                    32.11070951 
_cell_length_b                    31.599645194170815 
_cell_length_c                    30.824868273148656 
_cell_angle_alpha                 89.55025027630003 
_cell_angle_beta                  89.87576767934115 
_cell_angle_gamma                 89.38630006049631 
loop_ 
_atom_site_label 
_atom_site_type_symbol 
_atom_site_fract_x 
_atom_site_fract_y 
_atom_site_fract_z 
_atom_site_charge 
O1          O  0.58220753  0.95247047  0.49238937    -0.79900
O2          O  0.42108300  0.05005549  0.44736659    -0.80000
O3          O  0.45956939  0.94345304  0.41972731    -0.80000
O4          O  0.52156044  0.06085588  0.43669242    -0.79900
O5          O  0.40136905  0.96621729  0.44932018    -0.80000
O6          O  0.57503220  0.02374060  0.45487559    -0.80000
O7          O  0.45928560  0.09724568  0.48051325    -0.79900
O8          O  0.54084164  0.94012914  0.43895479    -0.80000
C9          C  0.57645409  0.93600084  0.45590245     1.09800
C10         C  0.43036661  0.08808448  0.45397986     1.09600
C11         C  0.42062561  0.94744220  0.41874041     1.09800
C12         C  0.55745184  0.04809850  0.42761178     1.09700
O13         O  0.57244365  0.04452604  0.54036987    -0.79900
O14         O  0.41777173  0.96849808  0.54277645    -0.80000
O15         O  0.51982709  0.91466811  0.52927004    -0.80000
O16         O  0.48800185  0.05622359  0.56007844    -0.79900
O17         O  0.42285834  0.05279099  0.54041858    -0.80000
O18         O  0.53370532  0.97387782  0.56256910    -0.79900
O19         O  0.54520037  0.10229766  0.51204338    -0.79900
O20         O  0.43697271  0.91291028  0.50561939    -0.80000
Co21       Co  0.54355498  0.99986934  0.50666503     1.51500
Co22       Co  0.42035652  0.00856184  0.49463638     1.51700
Co23       Co  0.48896054  0.93326118  0.47429518     1.51600
Co24       Co  0.50588003  0.05624096  0.49769295     1.51500
O25         O  0.48261830  0.99813762  0.48723483    -1.41900
C26         C  0.57487679  0.08409640  0.53300891     1.09700
C27         C  0.41756101  0.92923704  0.53740754     1.09800
C28         C  0.53281811  0.93412678  0.56269404     1.09700
C29         C  0.44982403  0.06269322  0.56832394     1.09700
O30         O  0.97801247  0.58310375  0.46284872    -0.79900
O31         O  0.99171222  0.40768409  0.54518196    -0.80000
O32         O  0.94456056  0.44397243  0.44229823    -0.80000
O33         O  0.97746062  0.52549670  0.60750425    -0.79900
O34         O  0.99498741  0.39825392  0.45701478    -0.80000
O35         O  0.95882231  0.55377886  0.54470383    -0.80000
O36         O  0.94968682  0.46286114  0.55328323    -0.79900
O37         O  0.93848160  0.52986252  0.45321515    -0.80000
C38         C  0.94517453  0.56824940  0.44597009     1.09800
C39         C  0.95757643  0.42409098  0.55964006     1.09600
C40         C  0.95858359  0.40624515  0.44338541     1.09800
C41         C  0.95494764  0.55159261  0.58628624     1.09700
O42         O  0.03047057  0.59891213  0.53502170    -0.79900
O43         O  0.07221224  0.44057375  0.44959171    -0.80000
O44         O  0.02205166  0.54099664  0.41211864    -0.80000
O45         O  0.03178459  0.45731760  0.59089239    -0.79900
O46         O  0.07427641  0.45014263  0.53770023    -0.80000
O47         O  0.06113193  0.54752325  0.47013331    -0.79900
O48         O  0.04966167  0.53752655  0.56298967    -0.79900
O49         O  0.02311474  0.45468740  0.40170442    -0.80000
Co50       Co  0.01195985  0.54794880  0.50735438     1.51500
Co51       Co  0.03265150  0.42796867  0.49744228     1.51700
Co52       Co  0.98254815  0.49231608  0.43114103     1.51600
Co53       Co  0.99783349  0.50029641  0.55499530     1.51500
O54         O  0.00631463  0.48634473  0.49174036    -1.41900
C55         C  0.05247716  0.57818343  0.56222619     1.09700
C56         C  0.05948293  0.44164436  0.41067387     1.09800
C57         C  0.05401179  0.55685142  0.43096834     1.09700
C58         C  0.06618990  0.44267161  0.57676742     1.09700
O59         O  0.42415074  0.48686652  0.96471474    -0.79900
O60         O  0.58014007  0.44250391  0.05079854    -0.80000
O61         O  0.54588376  0.42284138  0.91929307    -0.80000
O62         O  0.49402863  0.44706098  0.07666198    -0.79900
O63         O  0.59705522  0.42732887  0.96734586    -0.80000
O64         O  0.45207481  0.44058196  0.02558802    -0.80000
O65         O  0.55763998  0.49182551  0.09343126    -0.79900
O66         O  0.46298764  0.43921701  0.93331305    -0.80000
C67         C  0.42716318  0.45448184  0.94102581     1.09800
C68         C  0.57959036  0.45867334  0.08776049     1.09600
C69         C  0.57864558  0.40815853  0.93721094     1.09800
C70         C  0.46647206  0.42566046  0.05955254     1.09700
O71         O  0.42419918  0.52107746  0.04978178    -0.79900
O72         O  0.60654470  0.51567272  0.95219311    -0.80000
O73         O  0.47745911  0.52916438  0.91850777    -0.80000
O74         O  0.53187742  0.56071232  0.03842033    -0.79900
O75         O  0.59494820  0.53374722  0.03589279    -0.80000
O76         O  0.47300299  0.55648342  0.98416896    -0.79900
O77         O  0.47473559  0.52969284  0.09811657    -0.79900
O78         O  0.55852034  0.51115747  0.90119577    -0.80000
Co79       Co  0.46740713  0.49920333  0.00962529     1.51500
Co80       Co  0.58949372  0.47987044  0.00080797     1.51700
Co81       Co  0.51242161  0.47604383  0.92382401     1.51600
Co82       Co  0.50958423  0.50380504  0.05193817     1.51500
O83         O  0.52595982  0.48161540  0.98984775    -1.41900
C84         C  0.43625420  0.53368340  0.08724211     1.09700
C85         C  0.59257022  0.52482181  0.91527000     1.09800
C86         C  0.46696996  0.55939105  0.94348850     1.09700
C87         C  0.57072156  0.56485859  0.04387629     1.09700
C88         C  0.63135977  0.84454470  0.77411993     0.03300
C89         C  0.66422933  0.81562762  0.77161382    -0.12800
C90         C  0.68042831  0.80345426  0.73111109     0.00800
C91         C  0.66335937  0.82145313  0.69278509    -0.11300
C92         C  0.63027805  0.85106020  0.69568661     0.03300
C93         C  0.61466977  0.86211112  0.73635386    -0.10800
H94         H  0.67708642  0.80264601  0.80142975     0.08900
H95         H  0.67532729  0.81237837  0.66127908     0.06400
H96         H  0.58921753  0.88483036  0.73866696     0.06300
C97         C  0.74963764  0.71522963  0.76622210     0.80400
N98         N  0.71732630  0.74307205  0.76388679    -0.77900
C99         C  0.71450518  0.77156616  0.73056460     0.82900
N100        N  0.74424632  0.77159834  0.69891312    -0.77800
C101        C  0.77632064  0.74305830  0.70097233     0.83000
N102        N  0.77882161  0.71543706  0.73472565    -0.79500
C103        C  0.86305526  0.69827848  0.63364555     0.03300
C104        C  0.82647849  0.70143703  0.65780466    -0.12800
C105        C  0.80931537  0.74118302  0.66795202     0.00800
C106        C  0.82829478  0.77804454  0.65213937    -0.11300
C107        C  0.86536251  0.77512635  0.62779679     0.03300
C108        C  0.88247425  0.73501744  0.61868157    -0.10800
H109        H  0.81235312  0.67279577  0.67032963     0.08900
H110        H  0.81610526  0.80877635  0.66141449     0.06400
H111        H  0.91127548  0.73235601  0.60042959     0.06300
C112        C  0.79483674  0.63829538  0.84872385     0.03300
C113        C  0.79157634  0.67173955  0.81867885    -0.12800
C114        C  0.75250760  0.68350611  0.80133173     0.00800
C115        C  0.71667100  0.66203705  0.81474661    -0.11300
C116        C  0.71978042  0.62805011  0.84401480     0.03300
C117        C  0.75883447  0.61642511  0.86094823    -0.10800
H118        H  0.81944657  0.68805726  0.80829788     0.08900
H119        H  0.68671977  0.67022612  0.80067817     0.06400
H120        H  0.76119284  0.59029345  0.88383230     0.06300
C121        C  0.29476420  0.22873210  0.75893170     0.80400
N122        N  0.28952090  0.25548849  0.79330653    -0.77900
C123        C  0.25531798  0.28129668  0.79636808     0.82900
N124        N  0.22638548  0.28048109  0.76428365    -0.77800
C125        C  0.23095068  0.25429634  0.72968906     0.83000
N126        N  0.26514035  0.22828042  0.72723224    -0.79500
C127        C  0.27932197  0.36266844  0.88429689     0.03300
C128        C  0.28423151  0.33028561  0.85301169    -0.12800
C129        C  0.24961823  0.31094069  0.83368897     0.00800
C130        C  0.20930588  0.32183085  0.84853653    -0.11300
C131        C  0.20339602  0.35178434  0.88170522     0.03300
C132        C  0.23835669  0.37304698  0.89792995    -0.10800
H133        H  0.31507909  0.32108174  0.84224430     0.08900
H134        H  0.18240822  0.30686617  0.83442485     0.06400
H135        H  0.23286027  0.39921781  0.91980725     0.06300
C136        C  0.38426665  0.15898831  0.79845303     0.03300
C137        C  0.35065647  0.18746726  0.79731895    -0.12800
C138        C  0.33149350  0.19884147  0.75783968     0.00800
C139        C  0.34717448  0.18062860  0.71887342    -0.11300
C140        C  0.38170947  0.15188493  0.71970460     0.03300
C141        C  0.39958170  0.14159456  0.75995304    -0.10800
H142        H  0.33876321  0.19982273  0.82766838     0.08900
H143        H  0.33301443  0.18927932  0.68817830     0.06400
H144        H  0.42475909  0.11852168  0.76167675     0.06300
C145        C  0.15485803  0.21703332  0.64308141     0.03300
C146        C  0.18638779  0.21686580  0.67498766    -0.12800
C147        C  0.19863599  0.25467843  0.69511889     0.00800
C148        C  0.17887385  0.29309956  0.68319458    -0.11300
C149        C  0.14792586  0.29423700  0.65109651     0.03300
C150        C  0.13619008  0.25619318  0.63125307    -0.10800
H151        H  0.20013254  0.18723395  0.68569365     0.08900
H152        H  0.18817220  0.32239364  0.69825942     0.06400
H153        H  0.11245201  0.25716465  0.60629612     0.06300
O154        O  0.44049959  0.95086091  0.94239548    -0.79900
O155        O  0.47726928  0.02748691  0.10483471    -0.80000
O156        O  0.47975477  0.90841134  0.04443532    -0.80000
O157        O  0.49452477  0.08206144  0.95956291    -0.79900
O158        O  0.44438242  0.96824713  0.05028239    -0.80000
O159        O  0.44710289  0.03586454  0.94972645    -0.80000
O160        O  0.46785856  0.05935666  0.04130732    -0.79900
O161        O  0.48357491  0.89789175  0.95815428    -0.80000
C162        C  0.44835787  0.91166065  0.94527389     1.09800
C163        C  0.46039574  0.05681225  0.08249176     1.09600
C164        C  0.44680027  0.92857353  0.05630608     1.09800
C165        C  0.45967469  0.07272496  0.94338956     1.09700
O166        O  0.53205937  0.03120955  0.91078962    -0.79900
O167        O  0.52290984  0.95452146  0.09131051    -0.80000
O168        O  0.56711139  0.93066051  0.95395568    -0.80000
O169        O  0.54428300  0.09363812  0.03061846    -0.79900
O170        O  0.55227983  0.03257363  0.06508864    -0.80000
O171        O  0.52072961  0.94625712  0.90354483    -0.79900
O172        O  0.57119251  0.03679453  0.96914335    -0.79900
O173        O  0.56700742  0.94051883  0.04090004    -0.80000
Co174      Co  0.48546648  0.99118676  0.93033172     1.51500
Co175      Co  0.49657923  0.00043115  0.05376986     1.51700
Co176      Co  0.52454780  0.92303926  0.99928342     1.51600
Co177      Co  0.52123163  0.04432563  0.00554112     1.51500
O178        O  0.50674867  0.98415800  0.99161946    -1.41900
C179        C  0.56627346  0.04239231  0.92871927     1.09700
C180        C  0.55598869  0.93573212  0.07950201     1.09800
C181        C  0.55515149  0.92970236  0.91506496     1.09700
C182        C  0.56122991  0.07228092  0.06084424     1.09700
C183        C  0.28764697  0.73680814  0.78701011     0.80400
N184        N  0.25714658  0.70729540  0.78455050    -0.77900
C185        C  0.22725720  0.71060333  0.75335158     0.82900
N186        N  0.22771383  0.74357787  0.72509547    -0.77800
C187        C  0.25757895  0.77334609  0.72719404     0.83000
N188        N  0.28761203  0.76995738  0.75825596    -0.79500
C189        C  0.36919522  0.69631185  0.86800694     0.03300
C190        C  0.37916266  0.73416983  0.88831598    -0.12800
C191        C  0.35853247  0.77209755  0.87799154     0.00800
C192        C  0.32873114  0.77225623  0.84462084    -0.11300
C193        C  0.31885334  0.73482962  0.82258134     0.03300
C194        C  0.33875797  0.69642263  0.83503732    -0.10800
H195        H  0.40414159  0.73394472  0.91176688     0.08900
H196        H  0.31296695  0.80159813  0.83583810     0.06400
H197        H  0.33103309  0.66715384  0.81900362     0.06300
C198        C  0.21538514  0.85768941  0.65007073     0.03300
C199        C  0.25257030  0.87277818  0.63200910    -0.12800
C200        C  0.29124979  0.85606087  0.64503457     0.00800
C201        C  0.29310634  0.82489777  0.67763872    -0.11300
C202        C  0.25622710  0.80910752  0.69592191     0.03300
C203        C  0.21740874  0.82545931  0.68169137    -0.10800
H204        H  0.25138265  0.89687253  0.60677547     0.08900
H205        H  0.32300696  0.81167093  0.68722718     0.06400
H206        H  0.18878380  0.81340677  0.69547673     0.06300
C207        C  0.14162038  0.64231717  0.70890806     0.03300
C208        C  0.17637994  0.66858061  0.71094863    -0.12800
C209        C  0.19256608  0.68063244  0.75135105     0.00800
C210        C  0.17282719  0.66742327  0.78965705    -0.11300
C211        C  0.13733061  0.64189812  0.78805164     0.03300
C212        C  0.12247431  0.62884576  0.74744259    -0.10800
H213        H  0.19092322  0.67937975  0.68114135     0.08900
H214        H  0.18374195  0.67906687  0.82048860     0.06400
H215        H  0.09551219  0.60856565  0.74564961     0.06300
C216        C  0.75161593  0.28188491  0.23646830     0.80400
N217        N  0.72078165  0.25291039  0.23227150    -0.77900
C218        C  0.71958820  0.21827581  0.25888005     0.82900
N219        N  0.74936314  0.21288211  0.28971824    -0.77800
C220        C  0.78020111  0.24156044  0.29419127     0.83000
N221        N  0.78124836  0.27594688  0.26737730    -0.79500
C222        C  0.85740201  0.18907809  0.37121251     0.03300
C223        C  0.87508402  0.22470267  0.39025348    -0.12800
C224        C  0.86254854  0.26580975  0.37799992     0.00800
C225        C  0.83146860  0.27087290  0.34643197    -0.11300
C226        C  0.81232619  0.23546579  0.32801987     0.03300
C227        C  0.82520165  0.19444933  0.34089617    -0.10800
H228        H  0.89973987  0.22028393  0.41387201     0.08900
H229        H  0.82286165  0.30238152  0.33537851     0.06400
H230        H  0.81171364  0.16689325  0.32593009     0.06300
C231        C  0.79093585  0.36597367  0.15813654     0.03300
C232        C  0.79012933  0.33101613  0.18659487    -0.12800
C233        C  0.75296247  0.31969196  0.20781129     0.00800
C234        C  0.71679821  0.34422547  0.20096084    -0.11300
C235        C  0.71733244  0.38003094  0.17347290     0.03300
C236        C  0.75466640  0.39056952  0.15214594    -0.10800
H237        H  0.81804991  0.31194994  0.19116884     0.08900
H238        H  0.68803062  0.33526332  0.21685968     0.06400
H239        H  0.75509441  0.41663598  0.12911506     0.06300
C240        C  0.64257767  0.13099532  0.28492025     0.03300
C241        C  0.63032039  0.11992278  0.24304335    -0.12800
C242        C  0.64535975  0.14154622  0.20662400     0.00800
C243        C  0.67336852  0.17484684  0.21185365    -0.11300
C244        C  0.68733054  0.18559438  0.25354952     0.03300
C245        C  0.67161494  0.16361119  0.29005747    -0.10800
H246        H  0.60822036  0.09457387  0.23871679     0.08900
H247        H  0.68529575  0.19123374  0.18349383     0.06400
H248        H  0.68095724  0.17283381  0.32230359     0.06300
O249        O  0.94326882  0.53261745  0.93643951    -0.79900
O250        O  0.03652719  0.45591666  0.93004472    -0.80000
O251        O  0.03630694  0.59378956  0.97074752    -0.80000
O252        O  0.94738090  0.43958627  0.95178108    -0.79900
O253        O  0.04204504  0.54081141  0.92490320    -0.80000
O254        O  0.88830571  0.47355456  0.96512230    -0.80000
O255        O  0.02629277  0.40828417  0.97837047    -0.79900
O256        O  0.95106553  0.58893420  0.97635878    -0.80000
C257        C  0.93653119  0.57151261  0.94239666     1.09800
C258        C  0.04420915  0.41912727  0.94338276     1.09600
C259        C  0.04544032  0.57950364  0.93335859     1.09800
C260        C  0.90879854  0.44741416  0.94189311     1.09700
O261        O  0.92781463  0.46135879  0.04424243    -0.79900
O262        O  0.08843041  0.54206525  0.00529142    -0.80000
O263        O  0.96119663  0.55148826  0.06364678    -0.80000
O264        O  0.02067927  0.44839770  0.05823455    -0.79900
O265        O  0.07636227  0.45808832  0.01622361    -0.80000
O266        O  0.90680947  0.54134459  0.02379626    -0.79900
O267        O  0.95488394  0.39850035  0.03096474    -0.79900
O268        O  0.04432516  0.55693522  0.05743331    -0.80000
Co269      Co  0.93897692  0.49656428  0.98816964     1.51500
Co270      Co  0.05720012  0.49942155  0.96960148     1.51700
Co271      Co  0.99810942  0.56903042  0.01668347     1.51600
Co272      Co  0.98345952  0.44701028  0.00766060     1.51500
O273        O  0.00026760  0.50771815  0.99668577    -1.41900
C274        C  0.92886335  0.42121789  0.05171225     1.09700
C275        C  0.08126386  0.55483407  0.04362888     1.09800
C276        C  0.92264469  0.55586168  0.05851158     1.09700
C277        C  0.05986335  0.44573445  0.05198394     1.09700
C278        C  0.21653880  0.16804777  0.37064909     0.03300
C279        C  0.21720437  0.19396176  0.33312009    -0.12800
C280        C  0.25554664  0.20716029  0.31520458     0.00800
C281        C  0.29280569  0.19523142  0.33573100    -0.11300
C282        C  0.29251524  0.17063528  0.37360991     0.03300
C283        C  0.25443177  0.15725383  0.39098072    -0.10800
H284        H  0.18829479  0.20212146  0.31689379     0.08900
H285        H  0.32237524  0.20531390  0.32236697     0.06400
H286        H  0.25437226  0.13686464  0.41943937     0.06300
C287        C  0.25776082  0.23371335  0.27549633     0.80400
N288        N  0.22995066  0.26566236  0.26918725    -0.77900
C289        C  0.23419812  0.29301216  0.23521329     0.82900
N290        N  0.26681420  0.28831517  0.20732382    -0.77800
C291        C  0.29491440  0.25624734  0.21321440     0.83000
N292        N  0.29027324  0.22925592  0.24746159    -0.79500
C293        C  0.16078110  0.38164105  0.26729441     0.03300
C294        C  0.18798753  0.34679313  0.26943679    -0.12800
C295        C  0.20555099  0.32966762  0.23143022     0.00800
C296        C  0.19346491  0.34608576  0.19062577    -0.11300
C297        C  0.16503560  0.38011324  0.18839200     0.03300
C298        C  0.15162956  0.39944134  0.22667185    -0.10800
H299        H  0.19443343  0.33204563  0.30053373     0.08900
H300        H  0.20375549  0.33073661  0.16113302     0.06400
H301        H  0.13009783  0.42606685  0.22447169     0.06300
C302        C  0.38374494  0.28127692  0.13519862     0.03300
C303        C  0.34927523  0.28659318  0.16303238    -0.12800
C304        C  0.33105921  0.25125590  0.18359633     0.00800
C305        C  0.34797707  0.21072209  0.17610293    -0.11300
C306        C  0.38182968  0.20551146  0.14790050     0.03300
C307        C  0.39951430  0.24066023  0.12757145    -0.10800
H308        H  0.33712747  0.31814160  0.16903137     0.08900
H309        H  0.33415558  0.18309104  0.19112264     0.06400
H310        H  0.42582740  0.23634792  0.10586990     0.06300
C311        C  0.77856440  0.28276595  0.74038144     0.80400
N312        N  0.75153483  0.27342366  0.77324450    -0.77900
C313        C  0.72704832  0.23823298  0.77140664     0.82900
N314        N  0.72953426  0.21273638  0.73602743    -0.77800
C315        C  0.75651165  0.22178690  0.70320930     0.83000
N316        N  0.78082632  0.25647833  0.70579949    -0.79500
C317        C  0.85724144  0.36527465  0.70392354     0.03300
C318        C  0.82789185  0.33274438  0.70343179    -0.12800
C319        C  0.80602360  0.32076565  0.74143426     0.00800
C320        C  0.81315630  0.34325872  0.78018105    -0.11300
C321        C  0.84260141  0.37613471  0.78133533     0.03300
C322        C  0.86402035  0.38698567  0.74279362    -0.10800
H323        H  0.82321572  0.31586034  0.67342142     0.08900
H324        H  0.79792532  0.33348886  0.80993649     0.06400
H325        H  0.88718658  0.41169603  0.74338159     0.06300
C326        C  0.65387065  0.17984599  0.84981128     0.03300
C327        C  0.68297678  0.18723304  0.81615683    -0.12800
C328        C  0.69652378  0.22895071  0.80675500     0.00800
C329        C  0.67985389  0.26270478  0.83089378    -0.11300
C330        C  0.64967401  0.25572691  0.86297534     0.03300
C331        C  0.63726194  0.21441448  0.87260768    -0.10800
H332        H  0.69560662  0.16069146  0.79820324     0.08900
H333        H  0.68917002  0.29488312  0.82368966     0.06400
H334        H  0.61450497  0.20910449  0.89804970     0.06300
C335        C  0.72588523  0.15882702  0.60392224     0.03300
C336        C  0.72320445  0.18255548  0.64234027    -0.12800
C337        C  0.75937867  0.19489517  0.66431470     0.00800
C338        C  0.79868184  0.18233225  0.64849947    -0.11300
C339        C  0.80213260  0.15735817  0.61125580     0.03300
C340        C  0.76579503  0.14642036  0.58870160    -0.10800
H341        H  0.69300945  0.19109450  0.65552386     0.08900
H342        H  0.82658451  0.19089264  0.66596031     0.06400
H343        H  0.76863564  0.12706419  0.55996685     0.06300
C344        C  0.75083229  0.78067367  0.28304856     0.80400
N345        N  0.71813982  0.77799402  0.25505816    -0.77900
C346        C  0.71502765  0.74521281  0.22661844     0.82900
N347        N  0.74521883  0.71465384  0.22668150    -0.77800
C348        C  0.77796942  0.71657008  0.25474068     0.83000
N349        N  0.78060744  0.74969094  0.28269607    -0.79500
C350        C  0.71764843  0.86619348  0.36291578     0.03300
C351        C  0.71619130  0.83463393  0.33108602    -0.12800
C352        C  0.75323726  0.81650405  0.31444741     0.00800
C353        C  0.79204814  0.83204630  0.32910677    -0.11300
C354        C  0.79362794  0.86549878  0.35935751     0.03300
C355        C  0.75620353  0.88115674  0.37659811    -0.10800
H356        H  0.68625188  0.82262332  0.32111774     0.08900
H357        H  0.82080680  0.81866235  0.31661028     0.06400
H358        H  0.75699090  0.90470772  0.40195770     0.06300
C359        C  0.85330377  0.63191341  0.21424986     0.03300
C360        C  0.87343411  0.62011045  0.25328203    -0.12800
C361        C  0.86271997  0.63948035  0.29288967     0.00800
C362        C  0.83186005  0.67143526  0.29299703    -0.11300
C363        C  0.81080247  0.68303469  0.25446325     0.03300
C364        C  0.82146451  0.66268656  0.21540543    -0.10800
H365        H  0.89766863  0.59599237  0.25277112     0.08900
H366        H  0.82346231  0.68639505  0.32334253     0.06400
H367        H  0.80624717  0.67209334  0.18543895     0.06300
C368        C  0.62524130  0.78350912  0.15576883     0.03300
C369        C  0.61307955  0.74618811  0.13525516    -0.12800
C370        C  0.63379164  0.70750933  0.14347987     0.00800
C371        C  0.66773983  0.70679389  0.17291322    -0.11300
C372        C  0.67970386  0.74418711  0.19485366     0.03300
C373        C  0.65802107  0.78211001  0.18565776    -0.10800
H374        H  0.58836996  0.74752932  0.11139556     0.08900
H375        H  0.68410166  0.67724073  0.17923838     0.06400
H376        H  0.66738195  0.81132221  0.20085633     0.06300
C377        C  0.21730901  0.74385595  0.28195123     0.80400
N378        N  0.24459477  0.77607898  0.27577932    -0.77900
C379        C  0.27355635  0.77482740  0.24341820     0.82900
N380        N  0.27543454  0.74037377  0.21717563    -0.77800
C381        C  0.24838315  0.70778946  0.22286286     0.83000
N382        N  0.21934835  0.70979905  0.25512742    -0.79500
C383        C  0.34313586  0.86733795  0.27134368     0.03300
C384        C  0.35836272  0.87896008  0.23044798    -0.12800
C385        C  0.34743430  0.85636732  0.19316596     0.00800
C386        C  0.32031526  0.82160208  0.19718569    -0.11300
C387        C  0.30347776  0.81035653  0.23815430     0.03300
C388        C  0.31546042  0.83343628  0.27497189    -0.10800
H389        H  0.38012077  0.90487444  0.22781603     0.08900
H390        H  0.31172822  0.80411980  0.16853416     0.06400
H391        H  0.30409512  0.82440599  0.30682053     0.06300
C392        C  0.13713872  0.70997200  0.36740373     0.03300
C393        C  0.12967464  0.74919576  0.38833391    -0.12800
C394        C  0.15034185  0.78640298  0.37505332     0.00800
C395        C  0.17850138  0.78404755  0.34007515    -0.11300
C396        C  0.18638205  0.74561861  0.31835455     0.03300
C397        C  0.16523067  0.70893545  0.33216623    -0.10800
H398        H  0.10694893  0.75109563  0.41423778     0.08900
H399        H  0.19410785  0.81260278  0.32958959     0.06400
H400        H  0.17152433  0.67908234  0.31627823     0.06300
C401        C  0.29288456  0.61346277  0.16145635     0.03300
C402        C  0.28971734  0.64914359  0.18847932    -0.12800
C403        C  0.25113668  0.66999936  0.19468067     0.00800
C404        C  0.21548893  0.65500866  0.17329335    -0.11300
C405        C  0.21868965  0.62088178  0.14437716     0.03300
C406        C  0.25724840  0.60041225  0.13900238    -0.10800
H407        H  0.31702926  0.66031203  0.20529529     0.08900
H408        H  0.18576172  0.67098797  0.17765623     0.06400
H409        H  0.25952256  0.57445122  0.11639360     0.06300
O410        O  0.97176726  0.93358062  0.44128093    -0.79900
O411        O  0.04358618  0.10229510  0.46469160    -0.80000
O412        O  0.92886440  0.03409821  0.47705939    -0.80000
O413        O  0.10458435  0.96346408  0.48553881    -0.79900
O414        O  0.98485316  0.04437872  0.43642880    -0.80000
O415        O  0.05484740  0.94957209  0.44150891    -0.80000
O416        O  0.07784810  0.04235495  0.45720463    -0.79900
O417        O  0.92221821  0.94934689  0.48826561    -0.80000
C418        C  0.93375172  0.93407952  0.45216451     1.09800
C419        C  0.07471699  0.08248492  0.44907177     1.09600
C420        C  0.94572715  0.04766180  0.44195681     1.09800
C421        C  0.09215675  0.94421968  0.45177751     1.09700
O422        O  0.06064630  0.91598648  0.53171220    -0.79900
O423        O  0.97291393  0.08757894  0.51562310    -0.80000
O424        O  0.95914490  0.95337188  0.57272617    -0.80000
O425        O  0.11366778  0.04010467  0.53696684    -0.79900
O426        O  0.05082596  0.06736577  0.54520846    -0.80000
O427        O  0.97715078  0.90178604  0.52829094    -0.79900
O428        O  0.06518751  0.97513080  0.56866401    -0.79900
O429        O  0.96299728  0.04028581  0.56510027    -0.80000
Co430      Co  0.01606238  0.92909698  0.48580767     1.51500
Co431      Co  0.01904700  0.05183171  0.48877993     1.51700
Co432      Co  0.94736905  0.99441530  0.52555927     1.51600
Co433      Co  0.06717723  0.00867889  0.51468994     1.51500
O434        O  0.00719815  0.99034491  0.50389979    -1.41900
C435        C  0.07354730  0.93609138  0.56499344     1.09700
C436        C  0.95501286  0.07685050  0.55062472     1.09800
C437        C  0.96071945  0.91445866  0.56345248     1.09700
C438        C  0.09015983  0.06846321  0.55366078     1.09700
C439        C  0.12427186  0.86115331  0.36840869    -0.12100
C440        C  0.14039874  0.82867730  0.39497040     0.04900
C441        C  0.14579095  0.83718969  0.43958512    -0.07400
C442        C  0.13393442  0.87688036  0.45678395    -0.08100
C443        C  0.11534831  0.90847711  0.43061176    -0.02700
C444        C  0.11090052  0.90013516  0.38564561     0.04200
N445        N  0.09149104  0.93015599  0.35690665     0.66700
H446        H  0.11989173  0.85538509  0.33413746     0.15600
H447        H  0.13681979  0.88190129  0.49135738     0.15300
N448        N  0.16237205  0.80556987  0.46818401     0.74400
O449        O  0.11207717  0.94429362  0.32513118    -0.39100
O450        O  0.05225802  0.93267914  0.35573444    -0.39000
O451        O  0.20127885  0.80250527  0.47314363    -0.39700
O452        O  0.13854104  0.78796139  0.49525595    -0.39800
C453        C  0.87272881  0.94315150  0.40394752    -0.12100
C454        C  0.90177085  0.91586999  0.42349344     0.04900
C455        C  0.89717584  0.87175494  0.41876368    -0.07400
C456        C  0.86352400  0.85575581  0.39488088    -0.08100
C457        C  0.83356333  0.88308518  0.37623287    -0.02700
C458        C  0.83905890  0.92740070  0.38036941     0.04200
N459        N  0.81021195  0.95698526  0.36149680     0.66700
H460        H  0.87581347  0.97709350  0.40765421     0.15600
H461        H  0.85929078  0.82179781  0.39339964     0.15300
N462        N  0.92410953  0.84286182  0.44134624     0.74400
O463        O  0.78888455  0.98087576  0.38576169    -0.39100
O464        O  0.81249091  0.96528092  0.32147257    -0.39000
O465        O  0.91518727  0.83161518  0.47960323    -0.39700
O466        O  0.95195327  0.82292818  0.42073973    -0.39800
C467        C  0.86816891  0.15989074  0.56734924    -0.12100
C468        C  0.84330819  0.13929404  0.59831652     0.04900
C469        C  0.85777038  0.10098460  0.61665553    -0.07400
C470        C  0.89559652  0.08303251  0.60278367    -0.08100
C471        C  0.91966859  0.10201550  0.56978624    -0.00900
C472        C  0.90598233  0.14167824  0.55288076     0.04200
N473        N  0.92934384  0.16354077  0.52035903     0.66700
H474        H  0.85766424  0.18974165  0.55351911     0.15600
H475        H  0.90497205  0.05278798  0.61656516     0.15300
N476        N  0.83321373  0.07877299  0.64794558     0.74400
O477        O  0.92199041  0.15667082  0.48087549    -0.39100
O478        O  0.94945636  0.19604742  0.53059618    -0.39000
O479        O  0.80503314  0.05422458  0.63536188    -0.39700
O480        O  0.84379674  0.07858570  0.68734074    -0.39800
C481        C  0.10849187  0.14930784  0.42027465    -0.12100
C482        C  0.10792249  0.10463818  0.42315936     0.04900
C483        C  0.14208030  0.08197770  0.40517259    -0.07400
C484        C  0.17607764  0.10346523  0.38739712    -0.08100
C485        C  0.17751961  0.14771066  0.38645383    -0.02700
C486        C  0.14289975  0.17084235  0.40217655     0.04200
N487        N  0.14327281  0.21608835  0.40220454     0.66700
H488        H  0.08308232  0.16769058  0.43387569     0.15600
H489        H  0.20204638  0.08523332  0.37464482     0.15300
N490        N  0.14319486  0.03685274  0.40467127     0.74400
O491        O  0.11990355  0.23671149  0.37665972    -0.39100
O492        O  0.16861936  0.23546490  0.42594393    -0.39000
O493        O  0.13092068  0.01798432  0.37125012    -0.39700
O494        O  0.16514209  0.01703197  0.43216724    -0.39800
C495        C  0.89970266  0.39233787  0.83221329    -0.12100
C496        C  0.85701263  0.39429495  0.82346370     0.04900
C497        C  0.83037539  0.41297115  0.85479661    -0.07400
C498        C  0.84722388  0.42970212  0.89347077    -0.08100
C499        C  0.89047735  0.42832689  0.90163751    -0.02700
C500        C  0.91641791  0.40918747  0.87002236     0.04200
N501        N  0.96055409  0.40922785  0.87390391     0.66700
H502        H  0.92075799  0.37798133  0.80895310     0.15600
H503        H  0.82647141  0.44436298  0.91676940     0.15300
N504        N  0.78655801  0.41657909  0.84726132     0.74400
O505        O  0.97974937  0.37501332  0.88194620    -0.39100
O506        O  0.98026071  0.44076200  0.85972902    -0.39000
O507        O  0.76139696  0.39821118  0.87243794    -0.39700
O508        O  0.77290934  0.44283787  0.81955982    -0.39800
C509        C  0.92327297  0.60784170  0.11809443    -0.12100
C510        C  0.89965153  0.57946426  0.09334747     0.04900
C511        C  0.85831490  0.57139309  0.10672335    -0.07400
C512        C  0.84304109  0.58897885  0.14591945    -0.08100
C513        C  0.86823322  0.61501308  0.17176248    -0.02700
C514        C  0.90811728  0.62541995  0.15652033     0.04200
N515        N  0.93364570  0.65432837  0.17964071     0.66700
H516        H  0.95461683  0.61584895  0.10809835     0.15600
H517        H  0.81178093  0.58161776  0.15663186     0.15300
N518        N  0.83214116  0.54441567  0.08204179     0.74400
O519        O  0.96290548  0.64032802  0.20313392    -0.39100
O520        O  0.93203741  0.69323013  0.17016636    -0.39000
O521        O  0.82279592  0.50837115  0.09677527    -0.39700
O522        O  0.81212524  0.55961630  0.05026012    -0.39800
C523        C  0.13064784  0.43023009  0.08203395    -0.12100
C524        C  0.08713918  0.42551423  0.08521822     0.04900
C525        C  0.07098476  0.40100668  0.11974512    -0.07400
C526        C  0.09784670  0.38346089  0.15066017    -0.08100
C527        C  0.14089817  0.39020071  0.14877682    -0.02700
C528        C  0.15748528  0.41288631  0.11352361     0.04200
N529        N  0.20094268  0.42139776  0.11092559     0.66700
H530        H  0.14394676  0.44853046  0.05575032     0.15600
H531        H  0.08470706  0.36620277  0.17781284     0.15300
N532        N  0.02730781  0.39499894  0.12535616     0.74400
O533        O  0.22548675  0.39357370  0.09612939    -0.39100
O534        O  0.21306420  0.45905947  0.11405531    -0.39000
O535        O  0.00995283  0.36418937  0.10724190    -0.39700
O536        O  0.00882548  0.41375686  0.15591255    -0.39800
C537        C  0.15089756  0.58822751  0.04948542    -0.12100
C538        C  0.11605475  0.57103711  0.07055534     0.04900
C539        C  0.11465691  0.57159401  0.11647077    -0.07400
C540        C  0.14756077  0.58934837  0.14005102    -0.08100
C541        C  0.18236631  0.60629374  0.11875836    -0.02700
C542        C  0.18368144  0.60578113  0.07298636     0.04200
N543        N  0.21762062  0.62420856  0.04975622     0.66700
H544        H  0.15243311  0.58886477  0.01440725     0.15600
H545        H  0.14656216  0.58862741  0.17515849     0.15300
N546        N  0.08127500  0.55221701  0.13974189     0.74400
O547        O  0.24540659  0.60056053  0.03359775    -0.39100
O548        O  0.21504778  0.66238785  0.03767599    -0.39000
O549        O  0.08391444  0.51350306  0.14984605    -0.39700
O550        O  0.05365058  0.57510062  0.15727288    -0.39800
C551        C  0.87267939  0.37005137  0.06851157    -0.12100
C552        C  0.89843616  0.40275575  0.08287526     0.04900
C553        C  0.89028090  0.42079485  0.12408593    -0.07400
C554        C  0.85607310  0.40710829  0.14880787    -0.08100
C555        C  0.82916670  0.37625711  0.13318540    -0.02700
C556        C  0.83792529  0.35723477  0.09295162     0.04200
N557        N  0.81023203  0.32683792  0.07522854     0.66700
H558        H  0.87788699  0.35635754  0.03686880     0.15600
H559        H  0.84964792  0.42171349  0.17978085     0.15300
N560        N  0.91623163  0.45286317  0.14173178     0.74400
O561        O  0.77822626  0.33923652  0.05490284    -0.39100
O562        O  0.82087668  0.28831626  0.07416439    -0.39000
O563        O  0.91326434  0.49007300  0.12708602    -0.39700
O564        O  0.93194180  0.44716441  0.17882991    -0.39800
C565        C  0.91659995  0.13823809  0.36656415    -0.12100
C566        C  0.87594499  0.14694330  0.38089242     0.04900
C567        C  0.85581231  0.11733842  0.40773154    -0.07400
C568        C  0.87772560  0.08151707  0.42275123    -0.08100
C569        C  0.92011200  0.07506488  0.41242453    -0.02700
C570        C  0.93859600  0.10239177  0.38142507     0.04200
N571        N  0.98026419  0.09559412  0.36634762     0.66700
H572        H  0.93194604  0.16037146  0.34494820     0.15600
H573        H  0.86246527  0.06089065  0.44593406     0.15300
N574        N  0.81463628  0.12522509  0.42355692     0.74400
O575        O  0.98762075  0.06657831  0.33941075    -0.39100
O576        O  0.00778070  0.12283151  0.37367039    -0.39000
O577        O  0.78618454  0.09934493  0.41518042    -0.39700
O578        O  0.80887531  0.15234855  0.45286249    -0.39800
C579        C  0.07025302  0.63396077  0.82812406    -0.12100
C580        C  0.11403574  0.63092824  0.82828794     0.04900
C581        C  0.13437514  0.61696468  0.86654033    -0.07400
C582        C  0.11078719  0.60528332  0.90285408    -0.08100
C583        C  0.06719443  0.60547032  0.90124433    -0.02700
C584        C  0.04683348  0.62044725  0.86385289     0.04200
N585        N  0.00250141  0.61946073  0.86062791     0.66700
H586        H  0.05403633  0.64532367  0.79954383     0.15600
H587        H  0.12655458  0.59216761  0.93096191     0.15300
N588        N  0.17843350  0.60987358  0.86761431     0.74400
O589        O  0.98167458  0.65314352  0.86565210    -0.39100
O590        O  0.98531680  0.58765269  0.84421061    -0.39000
O591        O  0.20047157  0.62998244  0.89412602    -0.39700
O592        O  0.19383295  0.57816605  0.84850652    -0.39800
C593        C  0.16770357  0.91944944  0.63886640    -0.12100
C594        C  0.17489596  0.87585669  0.63487108     0.04900
C595        C  0.14476926  0.85125612  0.61382441    -0.07400
C596        C  0.11047079  0.87109729  0.59347557    -0.08100
C597        C  0.10424958  0.91528218  0.59527436    -0.02700
C598        C  0.13240710  0.93916096  0.62055103     0.04200
N599        N  0.12694839  0.98373345  0.62662370     0.66700
H600        H  0.19000349  0.93847383  0.65610174     0.15600
H601        H  0.08978451  0.85198559  0.57439396     0.15300
N602        N  0.14970618  0.80637374  0.61074797     0.74400
O603        O  0.09758404  0.99698448  0.65035972    -0.39100
O604        O  0.15612635  0.00848330  0.61675125    -0.39000
O605        O  0.12541750  0.78231922  0.63135699    -0.39700
O606        O  0.17616306  0.79074536  0.58496411    -0.39800
C607        C  0.54888648  0.87238842  0.12652902    -0.12100
C608        C  0.57536565  0.90122304  0.10556339     0.04900
C609        C  0.61863224  0.89198923  0.10388463    -0.07400
C610        C  0.63414139  0.85482481  0.12332700    -0.08100
C611        C  0.60737608  0.82500507  0.14199007    -0.02700
C612        C  0.56433087  0.83407014  0.14365024     0.04200
N613        N  0.53566640  0.80397346  0.16080964     0.66700
H614        H  0.51563229  0.87826250  0.12712072     0.15600
H615        H  0.66713717  0.84780740  0.12116123     0.15300
N616        N  0.64734333  0.91884401  0.08143856     0.74400
O617        O  0.53112493  0.80037997  0.20132772    -0.39100
O618        O  0.50977589  0.78696921  0.13581735    -0.39000
O619        O  0.67925731  0.93142136  0.10117282    -0.39700
O620        O  0.64729758  0.91978141  0.04050133    -0.39800
C621        C  0.40797751  0.84686299  0.95810504    -0.12100
C622        C  0.41769001  0.88083156  0.93066043     0.04900
C623        C  0.40203339  0.88190915  0.88807916    -0.07400
C624        C  0.37983765  0.84742331  0.87236377    -0.08100
C625        C  0.37229659  0.81189584  0.89884237    -0.02700
C626        C  0.38449616  0.81299551  0.94300915     0.04200
N627        N  0.37375286  0.77990355  0.97288588     0.66700
H628        H  0.41911127  0.84641380  0.99105703     0.15600
H629        H  0.37130777  0.84728909  0.83859278     0.15300
N630        N  0.41204875  0.91568491  0.85893624     0.74400
O631        O  0.33634079  0.77595576  0.98470185    -0.39100
O632        O  0.40204930  0.76041267  0.99352482    -0.39000
O633        O  0.44336308  0.91211249  0.83438848    -0.39700
O634        O  0.38512548  0.94406291  0.85108313    -0.39800
C635        C  0.58282185  0.13527753  0.10315584    -0.12100
C636        C  0.58982407  0.09269674  0.09185828     0.04900
C637        C  0.62026406  0.06907363  0.11475551    -0.07400
C638        C  0.64047367  0.08683724  0.15021331    -0.08100
C639        C  0.63100724  0.12806639  0.16351941    -0.02700
C640        C  0.60289427  0.15292892  0.13904366     0.04200
N641        N  0.59142124  0.19453151  0.15284521     0.66700
H642        H  0.55931524  0.15391542  0.08626092     0.15600
H643        H  0.66228071  0.06759064  0.16882528     0.15300
N644        N  0.62996259  0.02642317  0.10349001     0.74400
O645        O  0.60797886  0.22639520  0.13527501    -0.39100
O646        O  0.56764841  0.19933554  0.18513037    -0.39000
O647        O  0.65735663  0.01925168  0.07500052    -0.39700
O648        O  0.61833692  0.99681326  0.12822373    -0.39800
C649        C  0.41985085  0.86400665  0.09539740    -0.12100
C650        C  0.41405218  0.90674070  0.08300732     0.04900
C651        C  0.38011856  0.92927225  0.10171215    -0.07400
C652        C  0.35703265  0.91112047  0.13565514    -0.08100
C653        C  0.36572641  0.87006177  0.15087090    -0.02700
C654        C  0.39600595  0.84559647  0.12891750     0.04200
N655        N  0.40516041  0.80313961  0.14246390     0.66700
H656        H  0.44488491  0.84551742  0.08114777     0.15600
H657        H  0.33310708  0.92993527  0.15147586     0.15300
N658        N  0.36939493  0.97123481  0.08790978     0.74400
O659        O  0.40028935  0.77301781  0.11638451    -0.39100
O660        O  0.42190901  0.79612589  0.17884989    -0.39000
O661        O  0.34303455  0.97636856  0.05797795    -0.39700
O662        O  0.37851804  0.00212208  0.11164128    -0.39800
C663        C  0.38309926  0.14628616  0.09692818    -0.12100
C664        C  0.39693937  0.16320855  0.13599829     0.04900
C665        C  0.42785277  0.14178967  0.16018168    -0.07400
C666        C  0.44546409  0.10435346  0.14403487    -0.08100
C667        C  0.43378889  0.08905232  0.10322661    -0.02700
C668        C  0.40137430  0.10962285  0.08023918     0.04200
N669        N  0.38770644  0.09469065  0.03913948     0.66700
H670        H  0.35922814  0.16274979  0.07831427     0.15600
H671        H  0.47089848  0.08938010  0.16165113     0.15300
N672        N  0.44424642  0.15961118  0.19896714     0.74400
O673        O  0.39531971  0.11628552  0.00552055    -0.39100
O674        O  0.36006681  0.06667557  0.03783309    -0.39000
O675        O  0.44093050  0.13971402  0.23442218    -0.39700
O676        O  0.46884271  0.19040953  0.19632390    -0.39800
C677        C  0.58762149  0.08166799  0.86103975    -0.12100
C678        C  0.59705171  0.06873314  0.90383718     0.04900
C679        C  0.63194158  0.08735938  0.92420831    -0.07400
C680        C  0.65256583  0.12128551  0.90413557    -0.08100
C681        C  0.64032958  0.13670431  0.86330391    -0.02700
C682        C  0.60901924  0.11513366  0.84076385     0.04200
N683        N  0.59612471  0.12931540  0.79878328     0.66700
H684        H  0.56158748  0.06777198  0.84414298     0.15600
H685        H  0.67690887  0.13734762  0.92174407     0.15300
N686        N  0.64536257  0.07426708  0.96645291     0.74400
O687        O  0.61064420  0.11161677  0.76538408    -0.39100
O688        O  0.56645961  0.15555846  0.79519748    -0.39000
O689        O  0.67211707  0.04492070  0.97004485    -0.39700
O690        O  0.63794612  0.09776446  0.99852156    -0.39800
C691        C  0.09642176  0.16984290  0.62111297    -0.12100
C692        C  0.13945761  0.17663306  0.62332721     0.04900
C693        C  0.16621928  0.14493212  0.60637541    -0.07400
C694        C  0.14989600  0.10928108  0.58531320    -0.08100
C695        C  0.10674531  0.10330580  0.58165596    -0.02700
C696        C  0.08003557  0.13361775  0.60155388     0.04200
N697        N  0.03593637  0.12843072  0.60246459     0.66700
H698        H  0.07513613  0.19267466  0.63524838     0.15600
H699        H  0.17126359  0.08663041  0.57105603     0.15300
N700        N  0.21019265  0.14796114  0.61055358     0.74400
O701        O  0.01981524  0.10615923  0.63208322    -0.39100
O702        O  0.01316064  0.15339194  0.58067065    -0.39000
O703        O  0.22827093  0.12515274  0.63864705    -0.39700
O704        O  0.23115840  0.16479137  0.58048984    -0.39800
C705        C  0.45853121  0.13364323  0.89071738    -0.12100
C706        C  0.43712093  0.10078003  0.91206935     0.04900
C707        C  0.39591001  0.09163728  0.89868888    -0.07400
C708        C  0.37838319  0.11302518  0.86319599    -0.08100
C709        C  0.40097350  0.14333621  0.84022035    -0.02700
C710        C  0.44070329  0.15476236  0.85487742     0.04200
N711        N  0.46317620  0.18755486  0.83328235     0.66700
H712        H  0.48991716  0.14146497  0.90033523     0.15600
H713        H  0.34765854  0.10433430  0.85213361     0.15300
N714        N  0.37176720  0.05954190  0.91949345     0.74400
O715        O  0.45655656  0.22553621  0.84381588    -0.39100
O716        O  0.48187333  0.17968653  0.79818561    -0.39000
O717        O  0.34148960  0.07038768  0.94321800    -0.39700
O718        O  0.37336864  0.02226363  0.90515948    -0.39800
C719        C  0.10898051  0.37545011  0.95462708    -0.12100
C720        C  0.08108301  0.39518776  0.92547875     0.04900
C721        C  0.09286851  0.39721392  0.88107128    -0.07400
C722        C  0.13165115  0.38083831  0.86734806    -0.08100
C723        C  0.16040166  0.36364382  0.89695097    -0.02700
C724        C  0.14834059  0.36039083  0.94100426     0.04200
N725        N  0.17596400  0.34236606  0.97251570     0.66700
H726        H  0.10120113  0.37372753  0.98891616     0.15600
H727        H  0.14022603  0.38355861  0.83331563     0.15300
N728        N  0.06637337  0.41642136  0.84926675     0.74400
O729        O  0.19439022  0.36633314  0.99859814    -0.39100
O730        O  0.17455539  0.30319289  0.98052915    -0.39000
O731        O  0.06870304  0.45576422  0.84250582    -0.39700
O732        O  0.05033804  0.39342321  0.82061459    -0.39800
C733        C  0.85542023  0.65019947  0.89789734    -0.12100
C734        C  0.83566695  0.62495485  0.86699725     0.04900
C735        C  0.85309111  0.58523201  0.85688719    -0.07400
C736        C  0.88805904  0.57020234  0.87941923    -0.08100
C737        C  0.90613932  0.59369523  0.91308411    -0.02700
C738        C  0.89035560  0.63496584  0.92101316     0.04200
N739        N  0.90799971  0.66109901  0.95365803     0.66700
H740        H  0.84246659  0.68098460  0.90561993     0.15600
H741        H  0.89961247  0.53881382  0.87188132     0.15300
N742        N  0.83460835  0.55899379  0.82482371     0.74400
O743        O  0.93541938  0.68764445  0.94326390    -0.39100
O744        O  0.89079577  0.66339969  0.99041879    -0.39000
O745        O  0.84996238  0.55792285  0.78713418    -0.39700
O746        O  0.80884655  0.53116824  0.83629091    -0.39800
C747        C  0.93117838  0.81592933  0.62529863    -0.12100
C748        C  0.88861225  0.81361583  0.61517606     0.04900
C749        C  0.86943494  0.84759025  0.59269850    -0.07400
C750        C  0.89314671  0.88260914  0.58016867    -0.08100
C751        C  0.93606695  0.88389514  0.58856029    -0.02700
C752        C  0.95502809  0.85049256  0.61185440     0.04200
N753        N  0.99856587  0.85075222  0.62126777     0.66700
H754        H  0.94616221  0.79040391  0.64324625     0.15600
H755        H  0.87865395  0.90733170  0.56065352     0.15300
N756        N  0.82718026  0.84505646  0.57847491     0.74400
O757        O  0.01200215  0.87511268  0.65017777    -0.39100
O758        O  0.02154426  0.82095418  0.60785624    -0.39000
O759        O  0.80030764  0.87088781  0.59269564    -0.39700
O760        O  0.81831102  0.82184534  0.54673787    -0.39800
C761        C  0.55347181  0.87689504  0.85787631    -0.12100
C762        C  0.57744217  0.90374018  0.88347645     0.04900
C763        C  0.62086831  0.90520950  0.87763202    -0.07400
C764        C  0.63915275  0.88241853  0.84361774    -0.08100
C765        C  0.61438913  0.85817658  0.81596894    -0.02700
C766        C  0.57162543  0.85388853  0.82450884     0.04200
N767        N  0.54606183  0.82741689  0.79847212     0.66700
H768        H  0.52029198  0.87423818  0.86342662     0.15600
H769        H  0.67201217  0.88605261  0.83687336     0.15300
N770        N  0.64602361  0.93239005  0.90325573     0.74400
O771        O  0.54622801  0.78797887  0.80520715    -0.39100
O772        O  0.51828530  0.84381939  0.77459939    -0.39000
O773        O  0.67173191  0.91660232  0.92988633    -0.39700
O774        O  0.64724019  0.97142877  0.89447454    -0.39800
C775        C  0.42692769  0.34545098  0.14223132    -0.12100
C776        C  0.40504638  0.31792896  0.11539903     0.04900
C777        C  0.40667621  0.32377840  0.07006700    -0.07400
C778        C  0.42841462  0.35808554  0.05249564    -0.08100
C779        C  0.44914883  0.38676450  0.07936610    -0.02700
C780        C  0.44885420  0.37983130  0.12483253     0.04200
N781        N  0.46854744  0.40840222  0.15407088     0.66700
H782        H  0.42648747  0.34047672  0.17701166     0.15600
H783        H  0.42819915  0.36290021  0.01767936     0.15300
N784        N  0.38543985  0.29581422  0.04155989     0.74400
O785        O  0.45605180  0.44634371  0.15606726    -0.39100
O786        O  0.49208357  0.39398209  0.18354274    -0.39000
O787        O  0.34631222  0.29801641  0.03832767    -0.39700
O788        O  0.40598885  0.27319981  0.01540636    -0.39800
C789        C  0.57212652  0.34109483  0.89538471    -0.12100
C790        C  0.59653379  0.36716264  0.92174716     0.04900
C791        C  0.63789831  0.35386945  0.93154080    -0.07400
C792        C  0.65447530  0.31714468  0.91262881    -0.08100
C793        C  0.63025897  0.29216689  0.88539927    -0.02700
C794        C  0.58843052  0.30364102  0.87786971     0.04200
N795        N  0.56245213  0.27809869  0.85142527     0.66700
H796        H  0.54019845  0.34979270  0.88811107     0.15600
H797        H  0.68651203  0.30816609  0.91907465     0.15300
N798        N  0.66385697  0.37733232  0.96006875     0.74400
O799        O  0.54133445  0.24903410  0.86871180    -0.39100
O800        O  0.55576250  0.28860491  0.81247298    -0.39000
O801        O  0.66744726  0.36566822  0.99914580    -0.39700
O802        O  0.68920390  0.40367172  0.94453303    -0.39800
C803        C  0.64461603  0.37720348  0.14684055    -0.12100
C804        C  0.67762777  0.40200267  0.16149216     0.04900
C805        C  0.67359683  0.44662865  0.15910847    -0.07400
C806        C  0.63847060  0.46520349  0.13912549    -0.08100
C807        C  0.60747331  0.43999152  0.12090435    -0.02700
C808        C  0.61011669  0.39557476  0.12617742     0.04200
N809        N  0.57950354  0.36833095  0.10800911     0.66700
H810        H  0.64707894  0.34298535  0.14817505     0.15600
H811        H  0.63700334  0.49928288  0.13497663     0.15300
N812        N  0.70529603  0.47343886  0.17572918     0.74400
O813        O  0.58311343  0.35697951  0.06900516    -0.39100
O814        O  0.55648024  0.34723097  0.13314734    -0.39000
O815        O  0.72602985  0.49626394  0.14996758    -0.39700
O816        O  0.70636580  0.48090252  0.21585929    -0.39800
C817        C  0.61711131  0.59589939  0.89453663    -0.12100
C818        C  0.61829941  0.55211683  0.88786535     0.04900
C819        C  0.65009674  0.53421011  0.86231584    -0.07400
C820        C  0.68253322  0.55962996  0.84722480    -0.08100
C821        C  0.68270272  0.60319350  0.85588835    -0.02700
C822        C  0.64863593  0.62170481  0.87791588     0.04200
N823        N  0.64712958  0.66611519  0.88620432     0.66700
H824        H  0.59281663  0.60974612  0.91455557     0.15600
H825        H  0.70805630  0.54526055  0.82934656     0.15300
N826        N  0.65063340  0.48990524  0.85329641     0.74400
O827        O  0.62457367  0.68996127  0.86285886    -0.39100
O828        O  0.66259713  0.68027069  0.92069289    -0.39000
O829        O  0.62473951  0.47484758  0.82699279    -0.39700
O830        O  0.67488486  0.46538951  0.87387529    -0.39800
C831        C  0.56183095  0.62410293  0.09654603    -0.12100
C832        C  0.58749749  0.60298823  0.06657548     0.04900
C833        C  0.62975381  0.61532611  0.06360112    -0.07400
C834        C  0.64507155  0.64813272  0.08994843    -0.08100
C835        C  0.61916883  0.66887647  0.12009642    -0.02700
C836        C  0.57732664  0.65596340  0.12353335     0.04200
N837        N  0.55056621  0.67370696  0.15589219     0.66700
H838        H  0.53004386  0.61443588  0.10044945     0.15600
H839        H  0.67697306  0.65809254  0.08607286     0.15300
N840        N  0.65723525  0.59587788  0.03297246     0.74400
O841        O  0.51894581  0.69513146  0.14474509    -0.39100
O842        O  0.55492193  0.66254554  0.19503381    -0.39000
O843        O  0.66056207  0.61143134  0.99531664    -0.39700
O844        O  0.68285633  0.56783695  0.04552099    -0.39800
C845        C  0.44824326  0.60658546  0.88059250    -0.12100
C846        C  0.44217555  0.59501934  0.92441132     0.04900
C847        C  0.40876143  0.61400371  0.94726907    -0.07400
C848        C  0.38403927  0.64519990  0.92721965    -0.08100
C849        C  0.39090777  0.65760202  0.88406721    -0.02700
C850        C  0.42313498  0.63775735  0.86046015     0.04200
N851        N  0.43190706  0.65027919  0.81678096     0.66700
H852        H  0.47303230  0.59173718  0.86199165     0.15600
H853        H  0.35924709  0.66022908  0.94570385     0.15300
N854        N  0.39749153  0.60004247  0.98979827     0.74400
O855        O  0.45251734  0.68336233  0.80946927    -0.39100
O856        O  0.42424408  0.62539652  0.78606484    -0.39000
O857        O  0.40093638  0.62515713  0.02113634    -0.39700
O858        O  0.37423073  0.56831825  0.99380327    -0.39800
C859        C  0.37030769  0.52833435  0.12768199    -0.12100
C860        C  0.40500430  0.55242863  0.11666661     0.04900
C861        C  0.40574311  0.59545192  0.12826253    -0.07400
C862        C  0.36965105  0.61497922  0.14496820    -0.08100
C863        C  0.33353769  0.59136381  0.15314860    -0.02700
C864        C  0.33567371  0.54692153  0.14784467     0.04200
N865        N  0.30320450  0.52014977  0.16332783     0.66700
H866        H  0.37016847  0.49479001  0.12058040     0.15600
H867        H  0.36957933  0.64882621  0.15017346     0.15300
N868        N  0.44284781  0.61950293  0.12357004     0.74400
O869        O  0.28655249  0.49443165  0.13775030    -0.39100
O870        O  0.29830145  0.51528579  0.20368276    -0.39000
O871        O  0.46952440  0.61769970  0.15351767    -0.39700
O872        O  0.44429460  0.64932163  0.09617150    -0.39800
C873        C  0.35535832  0.42780167  0.95388562    -0.12100
C874        C  0.38902369  0.43300055  0.92546689     0.04900
C875        C  0.38613933  0.41624513  0.88336715    -0.07400
C876        C  0.35041079  0.39407940  0.87091281    -0.08100
C877        C  0.31684519  0.38713150  0.89976965    -0.02700
C878        C  0.31990501  0.40489284  0.94197694     0.04200
N879        N  0.28849021  0.39862504  0.97418183     0.66700
H880        H  0.35727728  0.44024815  0.98660683     0.15600
H881        H  0.34874653  0.38319052  0.83764454     0.15300
N882        N  0.41828701  0.42345238  0.85208774     0.74400
O883        O  0.28629514  0.36338338  0.99350025    -0.39100
O884        O  0.26953540  0.43030433  0.98969906    -0.39000
O885        O  0.43935729  0.39264096  0.83775366    -0.39700
O886        O  0.42092015  0.45916941  0.83373598    -0.39800
C887        C  0.09325647  0.40248572  0.29984431    -0.12100
C888        C  0.13609976  0.39554119  0.30558734     0.04900
C889        C  0.15353132  0.40200473  0.34700959    -0.07400
C890        C  0.12813001  0.41620679  0.38122848    -0.08100
C891        C  0.08559821  0.42513838  0.37466362    -0.02700
C892        C  0.06824032  0.41784016  0.33313825     0.04200
N893        N  0.02541463  0.42673149  0.32346970     0.66700
H894        H  0.07877780  0.39627157  0.26883025     0.15600
H895        H  0.14209175  0.42155886  0.41265196     0.15300
N896        N  0.19717662  0.39657711  0.35432441     0.74400
O897        O  0.99790154  0.39967234  0.33194199    -0.39100
O898        O  0.01576332  0.45956256  0.30202916    -0.39000
O899        O  0.22171116  0.42592946  0.34402632    -0.39700
O900        O  0.21009335  0.36636387  0.37787833    -0.39800
C901        C  0.86687302  0.58774382  0.35428619    -0.12100
C902        C  0.88204582  0.62444729  0.33445892     0.04900
C903        C  0.91477074  0.64614267  0.35486106    -0.07400
C904        C  0.93371471  0.62917661  0.39271622    -0.08100
C905        C  0.91978231  0.59104958  0.41165666    -0.02700
C906        C  0.88451912  0.57153021  0.39272583     0.04200
N907        N  0.86601214  0.53497896  0.41205791     0.66700
H908        H  0.84078733  0.57153922  0.33986132     0.15600
H909        H  0.96033364  0.64510139  0.40633930     0.15300
N910        N  0.92944157  0.68510732  0.33704145     0.74400
O911        O  0.84099447  0.53941473  0.44336113    -0.39100
O912        O  0.86908030  0.49961051  0.39352005    -0.39000
O913        O  0.91651904  0.71972098  0.35247009    -0.39700
O914        O  0.95045598  0.68509685  0.30240592    -0.39800
C915        C  0.10874814  0.57212508  0.61690562    -0.12100
C916        C  0.08069941  0.59850539  0.59394459     0.04900
C917        C  0.07699613  0.64148904  0.60616688    -0.07400
C918        C  0.09930535  0.65619316  0.64222870    -0.08100
C919        C  0.12469167  0.62861522  0.66674851    -0.02700
C920        C  0.13016722  0.58663013  0.65314591     0.04200
N921        N  0.15610147  0.55780067  0.67704508     0.66700
H922        H  0.11274925  0.53920325  0.60803519     0.15600
H923        H  0.09478655  0.68857847  0.65272133     0.15300
N924        N  0.04849647  0.66973337  0.58476511     0.74400
O925        O  0.13988062  0.53230139  0.70369770    -0.39100
O926        O  0.19377498  0.55299043  0.66628811    -0.39000
O927        O  0.01021746  0.66839758  0.59396644    -0.39700
O928        O  0.06230254  0.70111130  0.56391655    -0.39800
C929        C  0.94923892  0.37986709  0.62641188    -0.12100
C930        C  0.93053236  0.40112873  0.59119590     0.04900
C931        C  0.88684465  0.40759477  0.59200157    -0.07400
C932        C  0.86322918  0.39418777  0.62803142    -0.08100
C933        C  0.88239551  0.37526189  0.66430356    -0.02700
C934        C  0.92578467  0.36743552  0.66287282     0.04200
N935        N  0.94657744  0.34768457  0.69872847     0.66700
H936        H  0.98280452  0.37507352  0.62683971     0.15600
H937        H  0.82983776  0.40013198  0.62839240     0.15300
N938        N  0.86616955  0.42855778  0.55675996     0.74400
O939        O  0.94823378  0.30784409  0.70141294    -0.39100
O940        O  0.96853928  0.36961043  0.72372815    -0.39000
O941        O  0.85038339  0.40693179  0.52687707    -0.39700
O942        O  0.85744620  0.46749465  0.55932086    -0.39800
C943        C  0.14656148  0.35542523  0.59954283    -0.12100
C944        C  0.12961921  0.33547205  0.63613168     0.04900
C945        C  0.09570333  0.35513400  0.65744156    -0.07400
C946        C  0.07698994  0.39200818  0.63971143    -0.08100
C947        C  0.09212859  0.41051378  0.60114321    -0.02700
C948        C  0.12895707  0.39294271  0.58259699     0.04200
N949        N  0.14906039  0.41271675  0.54641817     0.66700
H950        H  0.17367725  0.34170307  0.58391402     0.15600
H951        H  0.04953359  0.40507619  0.65522646     0.15300
N952        N  0.07936431  0.33750175  0.69663215     0.74400
O953        O  0.17276999  0.44364295  0.55277648    -0.39100
O954        O  0.14931039  0.39479002  0.50997758    -0.39000
O955        O  0.08652161  0.35522183  0.73235034    -0.39700
O956        O  0.05345052  0.30783663  0.69500420    -0.39800
C957        C  0.92934294  0.30039000  0.39474722    -0.12100
C958        C  0.88578475  0.30277514  0.39458198     0.04900
C959        C  0.86601792  0.33995789  0.40996491    -0.07400
C960        C  0.89011087  0.37369358  0.42495965    -0.08100
C961        C  0.93377054  0.37059548  0.42641999    -0.02700
C962        C  0.95336392  0.33305070  0.41112667     0.04200
N963        N  0.99764978  0.32713086  0.41185527     0.66700
H964        H  0.94517018  0.27244766  0.38233929     0.15600
H965        H  0.87447001  0.40195111  0.43682135     0.15300
N966        N  0.82168357  0.34304127  0.41295326     0.74400
O967        O  0.01719666  0.32340685  0.37650460    -0.39100
O968        O  0.01479024  0.31432905  0.44642336    -0.39000
O969        O  0.80365553  0.32971869  0.44673134    -0.39700
O970        O  0.80199763  0.36681285  0.38688184    -0.39800
C971        C  0.88956729  0.59280353  0.58369862    -0.12100
C972        C  0.92530975  0.58093380  0.60719913     0.04900
C973        C  0.93703687  0.60504636  0.64346066    -0.07400
C974        C  0.91598021  0.64320410  0.65208240    -0.08100
C975        C  0.88236352  0.65653022  0.62620506    -0.02700
C976        C  0.86784267  0.63009459  0.59324258     0.04200
N977        N  0.83270205  0.64209391  0.56741495     0.66700
H978        H  0.88006968  0.57446063  0.55591738     0.15600
H979        H  0.92625548  0.66284541  0.67856286     0.15300
N980        N  0.97143891  0.59245590  0.67021983     0.74400
O981        O  0.83750282  0.66649857  0.53524150    -0.39100
O982        O  0.79867720  0.62302612  0.57236537    -0.39000
O983        O  0.00217022  0.61663284  0.67436936    -0.39700
O984        O  0.96760638  0.56129013  0.69571165    -0.39800
C985        C  0.09753115  0.62078649  0.44097915    -0.12100
C986        C  0.07820919  0.59301100  0.41188219     0.04900
C987        C  0.07909706  0.60357241  0.36728806    -0.07400
C988        C  0.09812829  0.64160134  0.35316617    -0.08100
C989        C  0.11669040  0.66972572  0.38281926    -0.02700
C990        C  0.11636689  0.65830906  0.42716326     0.04200
N991        N  0.13552147  0.68419216  0.45904551     0.66700
H992        H  0.09744947  0.61399664  0.47546932     0.15600
H993        H  0.09830718  0.64921198  0.31885416     0.15300
N994        N  0.06179645  0.57563552  0.33599796     0.74400
O995        O  0.11298490  0.70236126  0.48697302    -0.39100
O996        O  0.17421173  0.68085508  0.46544185    -0.39000
O997        O  0.02981264  0.58661032  0.31484577    -0.39700
O998        O  0.07747255  0.53922349  0.33073427    -0.39800
C999        C  0.44287547  0.12729282  0.67388548    -0.12100
C1000       C  0.39927689  0.13053306  0.67995267     0.04900
C1001       C  0.37366921  0.10985969  0.64995819    -0.07400
C1002       C  0.39116300  0.08728094  0.61535900    -0.08100
C1003       C  0.43450866  0.08453654  0.60859194    -0.02700
C1004       C  0.46053800  0.10475299  0.63880372     0.04200
N1005       N  0.50479203  0.10309358  0.63432427     0.66700
H1006       H  0.46355855  0.14257946  0.69658989     0.15600
H1007       H  0.36999912  0.07181636  0.59327797     0.15300
N1008       N  0.32951007  0.11151477  0.65368446     0.74400
O1009       O  0.52337152  0.13285524  0.61514961    -0.39100
O1010       O  0.52557813  0.07597415  0.65563538    -0.39000
O1011       O  0.30916479  0.13208772  0.62550357    -0.39700
O1012       O  0.31113519  0.08477231  0.67733086    -0.39800
C1013       C  0.58176021  0.93501570  0.62444294    -0.12100
C1014       C  0.55499990  0.91134466  0.59819959     0.04900
C1015       C  0.55544984  0.86680097  0.60249681    -0.07400
C1016       C  0.58304300  0.84697989  0.63188655    -0.08100
C1017       C  0.60988944  0.87098111  0.65760624    -0.02700
C1018       C  0.60902518  0.91541741  0.65355617     0.04200
N1019       N  0.63545198  0.94125203  0.67934989     0.66700
H1020       H  0.58263966  0.96914653  0.62168403     0.15600
H1021       H  0.58189715  0.81302604  0.63635410     0.15300
N1022       N  0.52672472  0.84148714  0.57902360     0.74400
O1023       O  0.67275014  0.94665257  0.66780749    -0.39100
O1024       O  0.61956962  0.96524698  0.70759501    -0.39000
O1025       O  0.53970872  0.81726785  0.54947808    -0.39700
O1026       O  0.48928258  0.83949470  0.59134682    -0.39800
C1027       C  0.34220201  0.16514473  0.43587745    -0.12100
C1028       C  0.33233952  0.15568924  0.39268996     0.04900
C1029       C  0.35979908  0.13016526  0.36837473    -0.07400
C1030       C  0.39544362  0.11308198  0.38789372    -0.08100
C1031       C  0.40408947  0.12007877  0.43186860    -0.02700
C1032       C  0.37787283  0.14755506  0.45564126     0.04200
N1033       N  0.38419434  0.15378909  0.50099126     0.66700
H1034       H  0.32121338  0.18474148  0.45480741     0.15600
H1035       H  0.41419398  0.09066440  0.36975168     0.15300
N1036       N  0.34915413  0.11695630  0.32559153     0.74400
O1037       O  0.40605166  0.18429132  0.51348851    -0.39100
O1038       O  0.36150448  0.13458719  0.52801039    -0.39000
O1039       O  0.36883893  0.13127469  0.29331382    -0.39700
O1040       O  0.32398563  0.08699091  0.32058540    -0.39800
C1041       C  0.38324884  0.92094411  0.60895413    -0.12100
C1042       C  0.39145056  0.90402392  0.56762156     0.04900
C1043       C  0.36999156  0.86739996  0.55481524    -0.07400
C1044       C  0.33917987  0.85038398  0.58204167    -0.08100
C1045       C  0.32914923  0.86944812  0.62173666    -0.02700
C1046       C  0.35215721  0.90430033  0.63569007     0.04200
N1047       N  0.34223825  0.92509623  0.67543452     0.66700
H1048       H  0.39949499  0.94879703  0.61968529     0.15600
H1049       H  0.32126050  0.82375724  0.57098911     0.15300
N1050       N  0.37606710  0.84946044  0.51286622     0.74400
O1051       O  0.36333364  0.91673171  0.70896102    -0.39100
O1052       O  0.31895306  0.95751798  0.67476927    -0.39000
O1053       O  0.39321006  0.81349988  0.50967344    -0.39700
O1054       O  0.35638484  0.86473171  0.48088420    -0.39800
C1055       C  0.62280797  0.06474848  0.38699412    -0.12100
C1056       C  0.57902669  0.06500295  0.38853772     0.04900
C1057       C  0.55675841  0.08746227  0.35588523    -0.07400
C1058       C  0.57834879  0.10951402  0.32356860    -0.08100
C1059       C  0.62199679  0.10977568  0.32235142    -0.02700
C1060       C  0.64431582  0.08718343  0.35453015     0.04200
N1061       N  0.68875189  0.08708129  0.35502680     0.66700
H1062       H  0.64050708  0.04854759  0.41208990     0.15600
H1063       H  0.56075728  0.12643706  0.29885122     0.15300
N1064       N  0.51215741  0.08859780  0.35508012     0.74400
O1065       O  0.70740222  0.11501036  0.37633081    -0.39100
O1066       O  0.70857938  0.05468903  0.34257210    -0.39000
O1067       O  0.49300855  0.12369526  0.35484395    -0.39700
O1068       O  0.49207453  0.05483558  0.35029984    -0.39800
C1069       C  0.36587697  0.94733699  0.36019712    -0.12100
C1070       C  0.39794763  0.92630797  0.38302986     0.04900
C1071       C  0.41046917  0.88534512  0.36955552    -0.07400
C1072       C  0.39149326  0.86658070  0.33378720    -0.08100
C1073       C  0.36002667  0.88769735  0.31066706    -0.02700
C1074       C  0.34718330  0.92843238  0.32392163     0.04200
N1075       N  0.31557984  0.95098897  0.30046259     0.66700
H1076       H  0.35622794  0.97891556  0.36970924     0.15600
H1077       H  0.40168481  0.83532812  0.32369819     0.15300
N1078       N  0.44235896  0.86218594  0.39217414     0.74400
O1079       O  0.27774514  0.94245825  0.30679048    -0.39100
O1080       O  0.32557241  0.97570476  0.26991296    -0.39000
O1081       O  0.43652251  0.85018914  0.43081416    -0.39700
O1082       O  0.47558160  0.85184044  0.37286038    -0.39800
C1083       C  0.61463292  0.14865904  0.55801265    -0.12100
C1084       C  0.61363252  0.10530323  0.54850428     0.04900
C1085       C  0.65079604  0.08097994  0.55495395    -0.07400
C1086       C  0.68636955  0.09946322  0.57213563    -0.08100
C1087       C  0.68729216  0.14236010  0.58277330    -0.02700
C1088       C  0.65098502  0.16730612  0.57492125     0.04200
N1089       N  0.65085843  0.21181263  0.58261373     0.66700
H1090       H  0.58708800  0.16809618  0.55266172     0.15600
H1091       H  0.71348692  0.07948291  0.57795117     0.15300
N1092       N  0.65356966  0.03717834  0.54366526     0.74400
O1093       O  0.66735223  0.23629416  0.55515446    -0.39100
O1094       O  0.62764875  0.22702528  0.61180287    -0.39000
O1095       O  0.66812613  0.02703504  0.50708786    -0.39700
O1096       O  0.65127196  0.00939566  0.57319419    -0.39800
C1097       C  0.61265271  0.91851598  0.38655823    -0.12100
C1098       C  0.61124420  0.91561802  0.43209268     0.04900
C1099       C  0.64409913  0.89486260  0.45420150    -0.07400
C1100       C  0.67759997  0.87787349  0.43080568    -0.08100
C1101       C  0.67958723  0.88165430  0.38541638    -0.02700
C1102       C  0.64680372  0.90234917  0.36321141     0.04200
N1103       N  0.64941475  0.91037077  0.31760826     0.66700
H1104       H  0.58816955  0.93521343  0.36919248     0.15600
H1105       H  0.70254838  0.86199953  0.44826559     0.15300
N1106       N  0.64372380  0.89032443  0.50038887     0.74400
O1107       O  0.62544276  0.89138269  0.29208212    -0.39100
O1108       O  0.66965323  0.94183201  0.30399454    -0.39000
O1109       O  0.62492152  0.85966643  0.51772744    -0.39700
O1110       O  0.66711901  0.91298149  0.52318250    -0.39800
loop_ 
_geom_bond_atom_site_label_1 
_geom_bond_atom_site_label_2 
_geom_bond_distance 
_geom_bond_site_symmetry_2 
_ccdc_geom_bond_type 
O1            C9   1.258       .  A
O1          Co21   1.986       .  S
O2           C10   1.259       .  A
O2          Co22   1.953       .  S
O3           C11   1.256       .  A
O3          Co23   1.953       .  S
O4           C12   1.249       .  A
O4          Co24   1.950       .  S
O5           C11   1.273       .  A
O5          Co22   2.041   1_565  S
O6           C12   1.265       .  A
O6          Co21   2.032   1_545  S
O7           C10   1.276       .  A
O7          Co24   2.037       .  S
O8            C9   1.263       .  A
O8          Co23   2.001       .  S
C9         C1098   1.480       .  S
C10        C1031   1.474       .  S
C11        C1070   1.488       .  S
C12        C1056   1.487       .  S
O13          C26   1.272       .  A
O13         Co21   1.997   1_545  S
O14          C27   1.253       .  A
O14         Co22   1.945   1_565  S
O15          C28   1.277       .  A
O15         Co23   2.044       .  S
O16          C29   1.266       .  A
O16         Co24   2.006       .  S
O17          C29   1.265       .  A
O17         Co22   1.996       .  S
O18          C28   1.257       .  A
O18         Co21   1.930       .  S
O19          C26   1.281       .  A
O19         Co24   1.990       .  S
O20          C27   1.270       .  A
O20         Co23   2.034       .  S
Co21         O25   2.049       .  S
Co22         O25   2.035   1_545  S
Co23         O25   2.099       .  S
Co24         O25   2.018   1_545  S
C26        C1084   1.500       .  S
C27        C1042   1.485       .  S
C28        C1014   1.484       .  S
C29        C1003   1.504       .  S
O30          C38   1.273       .  A
O30         Co50   2.064   1_655  S
O31          C39   1.288       .  A
O31         Co51   2.073   1_655  S
O32          C40   1.270       .  A
O32         Co52   1.992       .  S
O33          C41   1.269       .  A
O33         Co53   1.920       .  S
O34          C40   1.265       .  A
O34         Co51   1.987   1_655  S
O35          C41   1.289       .  A
O35         Co50   2.064   1_655  S
O36          C39   1.262       .  A
O36         Co53   1.958       .  S
O37          C38   1.252       .  A
O37         Co52   1.961       .  S
C38         C905   1.511       .  S
C39         C930   1.492       .  S
C40         C961   1.486       .  S
C41         C972   1.473       .  S
O42          C55   1.271       .  A
O42         Co50   1.928       .  S
O43          C56   1.268       .  A
O43         Co51   1.985       .  S
O44          C57   1.288       .  A
O44         Co52   2.084   1_455  S
O45          C58   1.271       .  A
O45         Co53   2.051   1_455  S
O46          C58   1.253       .  A
O46         Co51   1.964       .  S
O47          C57   1.261       .  A
O47         Co50   1.950       .  S
O48          C55   1.289       .  A
O48         Co53   2.065   1_455  S
O49          C56   1.265       .  A
O49         Co52   1.978   1_455  S
Co50         O54   2.019       .  S
Co51         O54   2.028       .  S
Co52         O54   2.026   1_655  S
Co53         O54   2.020   1_655  S
C55         C916   1.489       .  S
C56         C891   1.484       .  S
C57         C986   1.504       .  S
C58         C947   1.505       .  S
O59          C67   1.265       .  A
O59         Co79   2.007   1_556  S
O60          C68   1.252       .  A
O60         Co80   1.959       .  S
O61          C69   1.271       .  A
O61         Co81   1.991       .  S
O62          C70   1.241       .  A
O62         Co82   2.010       .  S
O63          C69   1.264       .  A
O63         Co80   1.974   1_556  S
O64          C70   1.234       .  A
O64         Co79   1.980       .  S
O65          C68   1.269       .  A
O65         Co82   2.037       .  S
O66          C67   1.265       .  A
O66         Co81   1.998       .  S
C67         C874   1.489       .  S
C68         C807   1.475       .  S
C69         C790   1.493       .  S
C70         C779   1.481       .  S
O71          C84   1.286       .  A
O71         Co79   1.980       .  S
O72          C85   1.255       .  A
O72         Co80   1.952   1_556  S
O73          C86   1.274       .  A
O73         Co81   2.015       .  S
O74          C87   1.267       .  A
O74         Co82   1.984       .  S
O75          C87   1.272       .  A
O75         Co80   2.033       .  S
O76          C86   1.272       .  A
O76         Co79   1.977   1_556  S
O77          C84   1.286       .  A
O77         Co82   1.985       .  S
O78          C85   1.259       .  A
O78         Co81   1.982       .  S
Co79         O83   2.048   1_554  S
Co80         O83   2.069   1_554  S
Co81         O83   2.091       .  S
Co82         O83   2.107   1_554  S
C84         C860   1.474       .  S
C85         C818   1.463       .  S
C86         C846   1.490       .  S
C87         C832   1.503       .  S
C88         C765   1.465       .  S
C88          C89   1.391       .  A
C88          C93   1.392       .  A
C89          C90   1.406       .  A
C89          H94   1.084       .  S
C90          C99   1.480       .  S
C90          C91   1.416       .  A
C91          C92   1.411       .  A
C91          H95   1.083       .  S
C92        C1017   1.478       .  S
C92          C93   1.395       .  A
C93          H96   1.085       .  S
C97         C114   1.472       .  S
C97          N98   1.355       .  A
C97         N102   1.348       .  A
N98          C99   1.363       .  A
C99         N100   1.364       .  A
N100        C101   1.363       .  A
C101        C105   1.469       .  S
C101        N102   1.355       .  A
C103        C975   1.471       .  S
C103        C104   1.392       .  A
C103        C108   1.398       .  A
C104        C105   1.403       .  A
C104        H109   1.085       .  S
C105        C106   1.404       .  A
C106        C107   1.408       .  A
C106        H110   1.083       .  S
C107        C748   1.483       .  S
C107        C108   1.406       .  A
C108        H111   1.084       .  S
C112        C734   1.484       .  S
C112        C113   1.403       .  A
C112        C117   1.403       .  A
C113        C114   1.410       .  A
C113        H118   1.084       .  S
C114        C115   1.402       .  A
C115        C116   1.400       .  A
C115        H119   1.084       .  S
C116        C821   1.477       .  S
C116        C117   1.404       .  A
C117        H120   1.084       .  S
C121        C138   1.504       .  S
C121        N122   1.370       .  A
C121        N126   1.365       .  A
N122        C123   1.364       .  A
C123        C129   1.499       .  S
C123        N124   1.359       .  A
N124        C125   1.362       .  A
C125        C147   1.489       .  S
C125        N126   1.367       .  A
C127        C877   1.518       .  S
C127        C128   1.419       .  A
C127        C132   1.416       .  A
C128        C129   1.410       .  A
C128        H133   1.082       .  S
C129        C130   1.412       .  A
C130        C131   1.410       .  A
C130        H134   1.083       .  S
C131        C723   1.502       .  S
C131        C132   1.409       .  A
C132        H135   1.084       .  S
C136        C709   1.476       .  S
C136        C137   1.398       .  A
C136        C141   1.398       .  A
C137        C138   1.407       .  A
C137        H142   1.084       .  S
C138        C139   1.425       .  A
C139        C140   1.426       .  A
C139        H143   1.083       .  S
C140       C1000   1.509       .  S
C140        C141   1.403       .  A
C141        H144   1.084       .  S
C145        C692   1.507       .  S
C145        C146   1.413       .  A
C145        C150   1.415       .  A
C146        C147   1.411       .  A
C146        H151   1.080       .  S
C147        C148   1.410       .  A
C148        C149   1.404       .  A
C148        H152   1.084       .  S
C149        C944   1.494       .  S
C149        C150   1.408       .  A
C150        H153   1.084       .  S
O154        C162   1.264       .  A
O154       Co174   1.969       .  S
O155        C163   1.268       .  A
O155       Co175   1.897       .  S
O156        C164   1.283       .  A
O156       Co176   2.053   1_554  S
O157        C165   1.265       .  A
O157       Co177   2.030   1_556  S
O158        C164   1.267       .  A
O158       Co175   1.973   1_565  S
O159        C165   1.251       .  A
O159       Co174   1.960   1_545  S
O160        C163   1.293       .  A
O160       Co177   2.088       .  S
O161        C162   1.271       .  A
O161       Co176   2.004       .  S
C162        C622   1.467       .  S
C163        C667   1.472       .  S
C164        C650   1.504       .  S
C165        C706   1.489       .  S
O166        C179   1.285       .  A
O166       Co174   2.056   1_545  S
O167        C180   1.265       .  A
O167       Co175   2.027   1_565  S
O168        C181   1.260       .  A
O168       Co176   1.968       .  S
O169        C182   1.267       .  A
O169       Co177   1.903       .  S
O170        C182   1.296       .  A
O170       Co175   2.098       .  S
O171        C181   1.268       .  A
O171       Co174   1.990       .  S
O172        C179   1.267       .  A
O172       Co177   1.969   1_556  S
O173        C180   1.249       .  A
O173       Co176   1.961   1_554  S
Co174       O178   2.020       .  S
Co175       O178   2.013   1_544  S
Co176       O178   2.020       .  S
Co177       O178   2.012   1_544  S
C179        C678   1.504       .  S
C180        C608   1.482       .  S
C181        C762   1.460       .  S
C182        C636   1.483       .  S
C183        C193   1.487       .  S
C183        N184   1.362       .  A
C183        N188   1.367       .  A
N184        C185   1.363       .  A
C185        C209   1.472       .  S
C185        N186   1.353       .  A
N186        C187   1.352       .  A
C187        C202   1.480       .  S
C187        N188   1.363       .  A
C189        C849   1.484       .  S
C189        C190   1.395       .  A
C189        C194   1.411       .  A
C190        C191   1.398       .  A
C190        H195   1.081       .  S
C191        C625   1.489       .  S
C191        C192   1.406       .  A
C192        C193   1.408       .  A
C192        H196   1.084       .  S
C193        C194   1.416       .  A
C194        H197   1.083       .  S
C198        C594   1.491       .  S
C198        C199   1.403       .  A
C198        C203   1.405       .  A
C199        C200   1.403       .  A
C199        H204   1.085       .  S
C200       C1045   1.476       .  S
C200        C201   1.402       .  A
C201        C202   1.405       .  A
C201        H205   1.084       .  S
C202        C203   1.414       .  A
C203        H206   1.083       .  S
C207        C919   1.479       .  S
C207        C208   1.400       .  A
C207        C212   1.402       .  A
C208        C209   1.407       .  A
C208        H213   1.084       .  S
C209        C210   1.402       .  A
C210        C211   1.405       .  A
C210        H214   1.082       .  S
C211        C580   1.488       .  S
C211        C212   1.407       .  A
C212        H215   1.084       .  S
C216        C233   1.481       .  S
C216        N217   1.363       .  A
C216        N221   1.359       .  A
N217        C218   1.363       .  A
C218        C244   1.481       .  S
C218        N219   1.358       .  A
N219        C220   1.357       .  A
C220        C226   1.478       .  S
C220        N221   1.361       .  A
C222        C566   1.481       .  S
C222        C223   1.400       .  A
C222        C227   1.403       .  A
C223        C224   1.405       .  A
C223        H228   1.084       .  S
C224        C958   1.487       .  S
C224        C225   1.402       .  A
C225        C226   1.406       .  A
C225        H229   1.083       .  S
C226        C227   1.411       .  A
C227        H230   1.083       .  S
C231        C555   1.485       .  S
C231        C232   1.406       .  A
C231        C236   1.405       .  A
C232        C233   1.408       .  A
C232        H237   1.084       .  S
C233        C234   1.405       .  A
C234        C235   1.408       .  A
C234        H238   1.084       .  S
C235        C804   1.491       .  S
C235        C236   1.408       .  A
C236        H239   1.083       .  S
C240       C1059   1.487       .  S
C240        C241   1.399       .  A
C240        C245   1.407       .  A
C241        C242   1.398       .  A
C241        H246   1.085       .  S
C242        C639   1.475       .  S
C242        C243   1.402       .  A
C243        C244   1.407       .  A
C243        H247   1.084       .  S
C244        C245   1.413       .  A
C245        H248   1.082       .  S
O249        C257   1.260       .  A
O249       Co269   1.958       .  S
O250        C258   1.252       .  A
O250       Co270   1.966       .  S
O251        C259   1.274       .  A
O251       Co271   2.029   1_456  S
O252        C260   1.297       .  A
O252       Co272   2.094   1_556  S
O253        C259   1.258       .  A
O253       Co270   1.951       .  S
O254        C260   1.274       .  A
O254       Co269   1.929       .  S
O255        C258   1.268       .  A
O255       Co272   2.045   1_456  S
O256        C257   1.278       .  A
O256       Co271   2.049   1_556  S
C257        C737   1.496       .  S
C258        C720   1.504       .  S
C259        C583   1.462       .  S
C260        C499   1.507       .  S
O261        C274   1.287       .  A
O261       Co269   2.081   1_554  S
O262        C275   1.271       .  A
O262       Co270   2.022   1_554  S
O263        C276   1.254       .  A
O263       Co271   1.950       .  S
O264        C277   1.274       .  A
O264       Co272   1.967   1_455  S
O265        C277   1.282       .  A
O265       Co270   2.027   1_554  S
O266        C276   1.276       .  A
O266       Co269   2.065   1_554  S
O267        C274   1.271       .  A
O267       Co272   1.928       .  S
O268        C275   1.261       .  A
O268       Co271   1.979   1_455  S
Co269       O273   2.021   1_655  S
Co270       O273   2.023       .  S
Co271       O273   2.038   1_654  S
Co272       O273   2.024   1_654  S
C274        C552   1.489       .  S
C275        C538   1.491       .  S
C276        C510   1.501       .  S
C277        C524   1.485       .  S
C278        C485   1.493       .  S
C278        C279   1.412       .  A
C278        C283   1.407       .  A
C279        C280   1.414       .  A
C279        H284   1.083       .  S
C280        C287   1.481       .  S
C280        C281   1.401       .  A
C281        C282   1.398       .  A
C281        H285   1.084       .  S
C282       C1028   1.480       .  S
C282        C283   1.402       .  A
C283        H286   1.084       .  S
C287        N288   1.354       .  A
C287        N292   1.361       .  A
N288        C289   1.360       .  A
C289        C295   1.475       .  S
C289        N290   1.361       .  A
N290        C291   1.361       .  A
C291        C304   1.483       .  S
C291        N292   1.361       .  A
C293        C888   1.487       .  S
C293        C294   1.400       .  A
C293        C298   1.399       .  A
C294        C295   1.409       .  A
C294        H299   1.082       .  S
C295        C296   1.410       .  A
C296        C297   1.404       .  A
C296        H300   1.083       .  S
C297        C527   1.479       .  S
C297        C298   1.398       .  A
C298        H301   1.085       .  S
C302        C776   1.478       .  S
C302        C303   1.408       .  A
C302        C307   1.396       .  A
C303        C304   1.411       .  A
C303        H308   1.084       .  S
C304        C305   1.407       .  A
C305        C306   1.400       .  A
C305        H309   1.084       .  S
C306        C664   1.466       .  S
C306        C307   1.396       .  A
C307        H310   1.085       .  S
C311        C319   1.498       .  S
C311        N312   1.365       .  A
C311        N316   1.358       .  A
N312        C313   1.370       .  A
C313        C328   1.493       .  S
C313        N314   1.363       .  A
N314        C315   1.361       .  A
C315        C337   1.477       .  S
C315        N316   1.356       .  A
C317        C933   1.496       .  S
C317        C318   1.402       .  A
C317        C322   1.404       .  A
C318        C319   1.416       .  A
C318        H323   1.083       .  S
C319        C320   1.415       .  A
C320        C321   1.413       .  A
C320        H324   1.083       .  S
C321        C496   1.500       .  S
C321        C322   1.413       .  A
C322        H325   1.084       .  S
C326        C681   1.491       .  S
C326        C327   1.415       .  A
C326        C331   1.403       .  A
C327        C328   1.420       .  A
C327        H332   1.083       .  S
C328        C329   1.406       .  A
C329        C330   1.401       .  A
C329        H333   1.084       .  S
C330        C793   1.479       .  S
C330        C331   1.398       .  A
C331        H334   1.084       .  S
C335       C1087   1.501       .  S
C335        C336   1.409       .  A
C335        C340   1.416       .  A
C336        C337   1.406       .  A
C336        H341   1.083       .  S
C337        C338   1.406       .  A
C338        C339   1.402       .  A
C338        H342   1.084       .  S
C339        C468   1.489       .  S
C339        C340   1.407       .  A
C340        H343   1.083       .  S
C344        C352   1.498       .  S
C344        N345   1.364       .  A
C344        N349   1.361       .  A
N345        C346   1.367       .  A
C346        C372   1.501       .  S
C346        N347   1.361       .  A
N347        C348   1.365       .  A
C348        C363   1.487       .  S
C348        N349   1.364       .  A
C350       C1101   1.484       .  S
C350        C351   1.406       .  A
C350        C355   1.397       .  A
C351        C352   1.412       .  A
C351        H356   1.083       .  S
C352        C353   1.420       .  A
C353        C354   1.416       .  A
C353        H357   1.083       .  S
C354        C457   1.499       .  S
C354        C355   1.400       .  A
C355        H358   1.084       .  S
C359        C513   1.494       .  S
C359        C360   1.413       .  A
C359        C364   1.404       .  A
C360        C361   1.410       .  A
C360        H365   1.084       .  S
C361        C902   1.497       .  S
C361        C362   1.407       .  A
C362        C363   1.412       .  A
C362        H366   1.084       .  S
C363        C364   1.409       .  A
C364        H367   1.084       .  S
C368        C611   1.485       .  S
C368        C369   1.402       .  A
C368        C373   1.400       .  A
C369        C370   1.407       .  A
C369        H374   1.083       .  S
C370        C835   1.503       .  S
C370        C371   1.420       .  A
C371        C372   1.423       .  A
C371        H375   1.083       .  S
C372        C373   1.407       .  A
C373        H376   1.084       .  S
C377        C396   1.498       .  S
C377        N378   1.362       .  A
C377        N382   1.363       .  A
N378        C379   1.363       .  A
C379        C387   1.493       .  S
C379        N380   1.362       .  A
N380        C381   1.364       .  A
C381        C403   1.484       .  S
C381        N382   1.363       .  A
C383       C1073   1.483       .  S
C383        C384   1.399       .  A
C383        C388   1.403       .  A
C384        C385   1.405       .  A
C384        H389   1.085       .  S
C385        C653   1.492       .  S
C385        C386   1.414       .  A
C386        C387   1.417       .  A
C386        H390   1.083       .  S
C387        C388   1.410       .  A
C388        H391   1.084       .  S
C392        C989   1.510       .  S
C392        C393   1.420       .  A
C392        C397   1.411       .  A
C393        C394   1.414       .  A
C393        H398   1.082       .  S
C394        C440   1.505       .  S
C394        C395   1.408       .  A
C395        C396   1.412       .  A
C395        H399   1.084       .  S
C396        C397   1.412       .  A
C397        H400   1.083       .  S
C401        C863   1.496       .  S
C401        C402   1.410       .  A
C401        C406   1.406       .  A
C402        C403   1.410       .  A
C402        H407   1.083       .  S
C403        C404   1.410       .  A
C404        C405   1.407       .  A
C404        H408   1.084       .  S
C405        C541   1.489       .  S
C405        C406   1.401       .  A
C406        H409   1.082       .  S
O410        C418   1.265       .  A
O410       Co430   1.982   1_655  S
O411        C419   1.270       .  A
O411       Co431   1.929       .  S
O412        C420   1.282       .  A
O412       Co432   2.030   1_545  S
O413        C421   1.276       .  A
O413       Co433   2.066   1_565  S
O414        C420   1.271       .  A
O414       Co431   1.971   1_655  S
O415        C421   1.249       .  A
O415       Co430   1.957       .  S
O416        C419   1.294       .  A
O416       Co433   2.089       .  S
O417        C418   1.269       .  A
O417       Co432   2.014       .  S
C418        C454   1.480       .  S
C419        C482   1.506       .  S
C420        C569   1.494       .  S
C421        C443   1.499       .  S
O422        C435   1.283       .  A
O422       Co430   2.052       .  S
O423        C436   1.267       .  A
O423       Co431   2.032   1_655  S
O424        C437   1.265       .  A
O424       Co432   1.975       .  S
O425        C438   1.276       .  A
O425       Co433   1.932       .  S
O426        C438   1.291       .  A
O426       Co431   2.083       .  S
O427        C437   1.270       .  A
O427       Co430   2.005   1_655  S
O428        C435   1.266       .  A
O428       Co433   1.967   1_565  S
O429        C436   1.259       .  A
O429       Co432   1.971   1_545  S
Co430       O434   2.035       .  S
Co431       O434   2.034   1_545  S
Co432       O434   2.036   1_655  S
Co433       O434   2.046   1_545  S
C435        C597   1.502       .  S
C436        C471   1.501       .  S
C437        C751   1.470       .  S
C438        C695   1.507       .  S
C439        C440   1.403       .  A
C439        C444   1.408       .  A
C439        H446   1.083       .  S
C440        C441   1.415       .  A
C441        C442   1.414       .  A
C441        N448   1.427       .  S
C442        C443   1.407       .  A
C442        H447   1.083       .  S
C443        C444   1.421       .  A
C444        N445   1.432       .  S
N445        O449   1.262       .  A
N445        O450   1.262       .  A
N448        O452   1.261       .  A
N448        O451   1.262       .  A
C453        C454   1.397       .  A
C453        C458   1.402       .  A
C453        H460   1.085       .  S
C454        C455   1.412       .  A
C455        C456   1.409       .  A
C455        N462   1.429       .  S
C456        C457   1.407       .  A
C456        H461   1.084       .  S
C457        C458   1.420       .  A
C458        N459   1.430       .  S
N459        O463   1.263       .  A
N459        O464   1.261       .  A
N462        O466   1.261       .  A
N462        O465   1.262       .  A
C467        C468   1.404       .  A
C467        C472   1.411       .  A
C467        H474   1.083       .  S
C468        C469   1.407       .  A
C469        C470   1.402       .  A
C469        N476   1.429       .  S
C470        C471   1.410       .  A
C470        H475   1.083       .  S
C471        C472   1.419       .  A
C472        N473   1.429       .  S
N473        O477   1.261       .  A
N473        O478   1.262       .  A
N476        O480   1.262       .  A
N476        O479   1.262       .  A
C481        C482   1.414       .  A
C481        C486   1.415       .  A
C481        H488   1.082       .  S
C482        C483   1.418       .  A
C483        C484   1.400       .  A
C483        N490   1.426       .  S
C484        C485   1.399       .  A
C484        H489   1.083       .  S
C485        C486   1.411       .  A
C486        N487   1.430       .  S
N487        O491   1.262       .  A
N487        O492   1.262       .  A
N490        O494   1.262       .  A
N490        O493   1.260       .  A
C495        C496   1.398       .  A
C495        C500   1.396       .  A
C495        H502   1.083       .  S
C496        C497   1.417       .  A
C497        C498   1.419       .  A
C497        N504   1.430       .  S
C498        C499   1.412       .  A
C498        H503   1.082       .  S
C499        C500   1.416       .  A
C500        N501   1.423       .  S
N501        O505   1.262       .  A
N501        O506   1.261       .  A
N504        O508   1.262       .  A
N504        O507   1.262       .  A
C509        C510   1.410       .  A
C509        C514   1.397       .  A
C509        H516   1.084       .  S
C510        C511   1.414       .  A
C511        C512   1.418       .  A
C511        N518   1.428       .  S
C512        C513   1.412       .  A
C512        H517   1.083       .  S
C513        C514   1.405       .  A
C514        N515   1.429       .  S
N515        O519   1.262       .  A
N515        O520   1.262       .  A
N518        O522   1.262       .  A
N518        O521   1.262       .  A
C523        C524   1.410       .  A
C523        C528   1.404       .  A
C523        H530   1.081       .  S
C524        C525   1.412       .  A
C525        C526   1.394       .  A
C525        N532   1.427       .  S
C526        C527   1.402       .  A
C526        H531   1.083       .  S
C527        C528   1.404       .  A
C528        N529   1.426       .  S
N529        O533   1.262       .  A
N529        O534   1.261       .  A
N532        O536   1.261       .  A
N532        O535   1.262       .  A
C537        C538   1.405       .  A
C537        C542   1.401       .  A
C537        H544   1.082       .  S
C538        C539   1.416       .  A
C539        C540   1.408       .  A
C539        N546   1.429       .  S
C540        C541   1.404       .  A
C540        H545   1.083       .  S
C541        C542   1.412       .  A
C542        N543   1.429       .  S
N543        O547   1.262       .  A
N543        O548   1.262       .  A
N546        O550   1.262       .  A
N546        O549   1.262       .  A
C551        C552   1.405       .  A
C551        C556   1.406       .  A
C551        H558   1.082       .  S
C552        C553   1.419       .  A
C553        C554   1.406       .  A
C553        N560   1.430       .  S
C554        C555   1.399       .  A
C554        H559   1.082       .  S
C555        C556   1.409       .  A
C556        N557   1.428       .  S
N557        O561   1.262       .  A
N557        O562   1.261       .  A
N560        O564   1.262       .  A
N560        O563   1.259       .  A
C565        C566   1.402       .  A
C565        C570   1.403       .  A
C565        H572   1.084       .  S
C566        C567   1.406       .  A
C567        C568   1.402       .  A
C567        N574   1.428       .  S
C568        C569   1.410       .  A
C568        H573   1.083       .  S
C569        C570   1.417       .  A
C570        N571   1.430       .  S
N571        O575   1.262       .  A
N571        O576   1.262   1_655  A
N574        O578   1.262       .  A
N574        O577   1.261       .  A
C579        C580   1.408       .  A
C579        C584   1.399       .  A
C579        H586   1.081       .  S
C580        C581   1.414       .  A
C581        C582   1.400       .  A
C581        N588   1.430       .  S
C582        C583   1.401       .  A
C582        H587   1.082       .  S
C583        C584   1.403       .  A
C584        N585   1.428       .  S
N585        O589   1.261   1_455  A
N585        O590   1.262   1_455  A
N588        O592   1.262       .  A
N588        O591   1.262       .  A
C593        C594   1.401       .  A
C593        C598   1.405       .  A
C593        H600   1.083       .  S
C594        C595   1.410       .  A
C595        C596   1.408       .  A
C595        N602   1.429       .  S
C596        C597   1.410       .  A
C596        H601   1.081       .  S
C597        C598   1.422       .  A
C598        N599   1.431       .  S
N599        O603   1.262       .  A
N599        O604   1.262   1_565  A
N602        O606   1.262       .  A
N602        O605   1.262       .  A
C607        C608   1.406       .  A
C607        C612   1.403       .  A
C607        H614   1.082       .  S
C608        C609   1.417       .  A
C609        C610   1.401       .  A
C609        N616   1.433       .  S
C610        C611   1.402       .  A
C610        H615   1.082       .  S
C611        C612   1.409       .  A
C612        N613   1.428       .  S
N613        O617   1.262       .  A
N613        O618   1.262       .  A
N616        O620   1.262       .  A
N616        O619   1.262       .  A
C621        C622   1.399       .  A
C621        C626   1.399       .  A
C621        H628   1.077       .  S
C622        C623   1.407       .  A
C623        C624   1.399       .  A
C623        N630   1.428       .  S
C624        C625   1.406       .  A
C624        H629   1.077       .  S
C625        C626   1.418       .  A
C626        N627   1.432       .  S
N627        O631   1.262       .  A
N627        O632   1.263       .  A
N630        O634   1.261       .  A
N630        O633   1.262       .  A
C635        C636   1.408       .  A
C635        C640   1.404       .  A
C635        H642   1.084       .  S
C636        C637   1.411       .  A
C637        C638   1.397       .  A
C637        N644   1.425       .  S
C638        C639   1.399       .  A
C638        H643   1.085       .  S
C639        C640   1.407       .  A
C640        N641   1.429       .  S
N641        O645   1.262       .  A
N641        O646   1.262       .  A
N644        O648   1.261   1_545  A
N644        O647   1.262       .  A
C649        C650   1.411       .  A
C649        C654   1.410       .  A
C649        H656   1.083       .  S
C650        C651   1.419       .  A
C651        C652   1.403       .  A
C651        N658   1.428       .  S
C652        C653   1.402       .  A
C652        H657   1.084       .  S
C653        C654   1.411       .  A
C654        N655   1.430       .  S
N655        O659   1.262       .  A
N655        O660   1.262       .  A
N658        O662   1.262   1_565  A
N658        O661   1.262       .  A
C663        C664   1.397       .  A
C663        C668   1.395       .  A
C663        H670   1.084       .  S
C664        C665   1.407       .  A
C665        C666   1.400       .  A
C665        N672   1.429       .  S
C666        C667   1.404       .  A
C666        H671   1.084       .  S
C667        C668   1.410       .  A
C668        N669   1.427       .  S
N669        O673   1.261       .  A
N669        O674   1.261       .  A
N672        O676   1.262       .  A
N672        O675   1.261       .  A
C677        C678   1.411       .  A
C677        C682   1.409       .  A
C677        H684   1.085       .  S
C678        C679   1.421       .  A
C679        C680   1.405       .  A
C679        N686   1.429       .  S
C680        C681   1.402       .  A
C680        H685   1.085       .  S
C681        C682   1.408       .  A
C682        N683   1.427       .  S
N683        O687   1.262       .  A
N683        O688   1.261       .  A
N686        O690   1.262       .  A
N686        O689   1.262       .  A
C691        C692   1.403       .  A
C691        C696   1.406       .  A
C691        H698   1.082       .  S
C692        C693   1.415       .  A
C693        C694   1.411       .  A
C693        N700   1.422       .  S
C694        C695   1.405       .  A
C694        H699   1.081       .  S
C695        C696   1.421       .  A
C696        N697   1.427       .  S
N697        O701   1.262       .  A
N697        O702   1.261       .  A
N700        O704   1.262       .  A
N700        O703   1.261       .  A
C705        C706   1.410       .  A
C705        C710   1.406       .  A
C705        H712   1.083       .  S
C706        C707   1.420       .  A
C707        C708   1.398       .  A
C707        N714   1.430       .  S
C708        C709   1.395       .  A
C708        H713   1.083       .  S
C709        C710   1.406       .  A
C710        N711   1.429       .  S
N711        O715   1.262       .  A
N711        O716   1.261       .  A
N714        O718   1.262       .  A
N714        O717   1.261       .  A
C719        C720   1.408       .  A
C719        C724   1.410       .  A
C719        H726   1.087       .  S
C720        C721   1.421       .  A
C721        C722   1.409       .  A
C721        N728   1.427       .  S
C722        C723   1.402       .  A
C722        H727   1.087       .  S
C723        C724   1.415       .  A
C724        N725   1.428       .  S
N725        O729   1.261       .  A
N725        O730   1.262       .  A
N728        O732   1.262       .  A
N728        O731   1.262       .  A
C733        C734   1.404       .  A
C733        C738   1.409       .  A
C733        H740   1.082       .  S
C734        C735   1.406       .  A
C735        C736   1.398       .  A
C735        N742   1.429       .  S
C736        C737   1.410       .  A
C736        H741   1.082       .  S
C737        C738   1.417       .  A
C738        N739   1.429       .  S
N739        O743   1.262       .  A
N739        O744   1.262       .  A
N742        O746   1.262       .  A
N742        O745   1.262       .  A
C747        C748   1.405       .  A
C747        C752   1.400       .  A
C747        H754   1.084       .  S
C748        C749   1.410       .  A
C749        C750   1.401       .  A
C749        N756   1.430       .  S
C750        C751   1.404       .  A
C750        H755   1.084       .  S
C751        C752   1.406       .  A
C752        N753   1.429       .  S
N753        O757   1.262   1_655  A
N753        O758   1.262   1_655  A
N756        O760   1.262       .  A
N756        O759   1.262       .  A
C761        C762   1.401       .  A
C761        C766   1.388       .  A
C761        H768   1.083       .  S
C762        C763   1.407       .  A
C763        C764   1.401       .  A
C763        N770   1.429       .  S
C764        C765   1.404       .  A
C764        H769   1.082       .  S
C765        C766   1.405       .  A
C766        N767   1.430       .  S
N767        O771   1.262       .  A
N767        O772   1.262       .  A
N770        O774   1.262       .  A
N770        O773   1.262       .  A
C775        C776   1.400       .  A
C775        C780   1.403       .  A
C775        H782   1.082       .  S
C776        C777   1.409       .  A
C777        C778   1.400       .  A
C777        N784   1.430       .  S
C778        C779   1.406       .  A
C778        H783   1.083       .  S
C779        C780   1.417       .  A
C780        N781   1.433       .  S
N781        O785   1.262       .  A
N781        O786   1.262       .  A
N784        O788   1.262       .  A
N784        O787   1.262       .  A
C789        C790   1.407       .  A
C789        C794   1.401       .  A
C789        H796   1.082       .  S
C790        C791   1.421       .  A
C791        C792   1.402       .  A
C791        N798   1.430       .  S
C792        C793   1.399       .  A
C792        H797   1.083       .  S
C793        C794   1.407       .  A
C794        N795   1.428       .  S
N795        O799   1.261       .  A
N795        O800   1.261       .  A
N798        O802   1.261       .  A
N798        O801   1.262       .  A
C803        C804   1.403       .  A
C803        C808   1.398       .  A
C803        H810   1.084       .  S
C804        C805   1.416       .  A
C805        C806   1.407       .  A
C805        N812   1.430       .  S
C806        C807   1.403       .  A
C806        H811   1.084       .  S
C807        C808   1.413       .  A
C808        N809   1.431       .  S
N809        O813   1.262       .  A
N809        O814   1.262       .  A
N812        O816   1.262       .  A
N812        O815   1.262       .  A
C817        C818   1.400       .  A
C817        C822   1.400       .  A
C817        H824   1.084       .  S
C818        C819   1.405       .  A
C819        C820   1.399       .  A
C819        N826   1.429       .  S
C820        C821   1.404       .  A
C820        H825   1.084       .  S
C821        C822   1.410       .  A
C822        N823   1.429       .  S
N823        O827   1.262       .  A
N823        O828   1.262       .  A
N826        O830   1.261       .  A
N826        O829   1.262       .  A
C831        C832   1.404       .  A
C831        C836   1.407       .  A
C831        H838   1.075       .  S
C832        C833   1.418       .  A
C833        C834   1.415       .  A
C833        N840   1.429       .  S
C834        C835   1.407       .  A
C834        H839   1.081       .  S
C835        C836   1.412       .  A
C836        N837   1.429       .  S
N837        O841   1.261       .  A
N837        O842   1.262       .  A
N840        O844   1.262       .  A
N840        O843   1.262   1_554  A
C845        C846   1.410       .  A
C845        C850   1.407       .  A
C845        H852   1.085       .  S
C846        C847   1.413       .  A
C847        C848   1.400       .  A
C847        N854   1.427       .  S
C848        C849   1.401       .  A
C848        H853   1.085       .  S
C849        C850   1.408       .  A
C850        N851   1.429       .  S
N851        O855   1.262       .  A
N851        O856   1.262       .  A
N854        O858   1.262       .  A
N854        O857   1.261   1_556  A
C859        C860   1.396       .  A
C859        C864   1.399       .  A
C859        H866   1.084       .  S
C860        C861   1.409       .  A
C861        C862   1.406       .  A
C861        N868   1.427       .  S
C862        C863   1.407       .  A
C862        H867   1.083       .  S
C863        C864   1.416       .  A
C864        N865   1.429       .  S
N865        O869   1.261       .  A
N865        O870   1.262       .  A
N868        O872   1.262       .  A
N868        O871   1.261       .  A
C873        C874   1.400       .  A
C873        C878   1.407       .  A
C873        H880   1.088       .  S
C874        C875   1.409       .  A
C875        C876   1.406       .  A
C875        N882   1.430       .  S
C876        C877   1.414       .  A
C876        H881   1.086       .  S
C877        C878   1.425       .  A
C878        N879   1.428       .  S
N879        O883   1.261       .  A
N879        O884   1.263       .  A
N882        O886   1.262       .  A
N882        O885   1.262       .  A
C887        C888   1.402       .  A
C887        C892   1.389       .  A
C887        H894   1.084       .  S
C888        C889   1.412       .  A
C889        C890   1.405       .  A
C889        N896   1.428       .  S
C890        C891   1.406       .  A
C890        H895   1.083       .  S
C891        C892   1.419       .  A
C892        N893   1.432       .  S
N893        O897   1.262   1_455  A
N893        O898   1.262       .  A
N896        O900   1.262       .  A
N896        O899   1.262       .  A
C901        C902   1.398       .  A
C901        C906   1.405       .  A
C901        H908   1.084       .  S
C902        C903   1.412       .  A
C903        C904   1.416       .  A
C903        N910   1.428       .  S
C904        C905   1.411       .  A
C904        H909   1.084       .  S
C905        C906   1.424       .  A
C906        N907   1.430       .  S
N907        O911   1.262       .  A
N907        O912   1.262       .  A
N910        O914   1.262       .  A
N910        O913   1.262       .  A
C915        C916   1.409       .  A
C915        C920   1.396       .  A
C915        H922   1.084       .  S
C916        C917   1.416       .  A
C917        C918   1.408       .  A
C917        N924   1.430       .  S
C918        C919   1.404       .  A
C918        H923   1.084       .  S
C919        C920   1.404       .  A
C920        N921   1.429       .  S
N921        O925   1.262       .  A
N921        O926   1.262       .  A
N924        O928   1.261       .  A
N924        O927   1.262       .  A
C929        C930   1.405       .  A
C929        C934   1.407       .  A
C929        H936   1.087       .  S
C930        C931   1.416       .  A
C931        C932   1.408       .  A
C931        N938   1.429       .  S
C932        C933   1.404       .  A
C932        H937   1.087       .  S
C933        C934   1.413       .  A
C934        N935   1.428       .  S
N935        O939   1.262       .  A
N935        O940   1.262       .  A
N938        O942   1.262       .  A
N938        O941   1.262       .  A
C943        C944   1.400       .  A
C943        C948   1.405       .  A
C943        H950   1.082       .  S
C944        C945   1.412       .  A
C945        C946   1.412       .  A
C945        N952   1.428       .  S
C946        C947   1.409       .  A
C946        H951   1.082       .  S
C947        C948   1.422       .  A
C948        N949   1.430       .  S
N949        O953   1.262       .  A
N949        O954   1.262       .  A
N952        O956   1.261       .  A
N952        O955   1.262       .  A
C957        C958   1.400       .  A
C957        C962   1.394       .  A
C957        H964   1.086       .  S
C958        C959   1.414       .  A
C959        C960   1.406       .  A
C959        N966   1.429       .  S
C960        C961   1.405       .  A
C960        H965   1.085       .  S
C961        C962   1.420       .  A
C962        N963   1.433       .  S
N963        O967   1.262   1_655  A
N963        O968   1.262   1_655  A
N966        O970   1.262       .  A
N966        O969   1.262       .  A
C971        C972   1.405       .  A
C971        C976   1.396       .  A
C971        H978   1.084       .  S
C972        C973   1.412       .  A
C973        C974   1.403       .  A
C973        N980   1.431       .  S
C974        C975   1.403       .  A
C974        H979   1.083       .  S
C975        C976   1.404       .  A
C976        N977   1.429       .  S
N977        O981   1.262       .  A
N977        O982   1.262       .  A
N980        O984   1.262       .  A
N980        O983   1.262   1_655  A
C985        C986   1.409       .  A
C985        C990   1.400       .  A
C985        H992   1.083       .  S
C986        C987   1.412       .  A
C987        C988   1.419       .  A
C987        N994   1.430       .  S
C988        C989   1.417       .  A
C988        H993   1.083       .  S
C989        C990   1.411       .  A
C990        N991   1.428       .  S
N991        O995   1.261       .  A
N991        O996   1.262       .  A
N994        O998   1.262       .  A
N994        O997   1.262       .  A
C999       C1000   1.415       .  A
C999       C1004   1.414       .  A
C999       H1006   1.086       .  S
C1000      C1001   1.408       .  A
C1001      C1002   1.401       .  A
C1001      N1008   1.423       .  S
C1002      C1003   1.409       .  A
C1002      H1007   1.085       .  S
C1003      C1004   1.414       .  A
C1004      N1005   1.428       .  S
N1005      O1009   1.262       .  A
N1005      O1010   1.262       .  A
N1008      O1012   1.262       .  A
N1008      O1011   1.260       .  A
C1013      C1014   1.407       .  A
C1013      C1018   1.392       .  A
C1013      H1020   1.082       .  S
C1014      C1015   1.413       .  A
C1015      C1016   1.407       .  A
C1015      N1022   1.429       .  S
C1016      C1017   1.405       .  A
C1016      H1021   1.082       .  S
C1017      C1018   1.409       .  A
C1018      N1019   1.431       .  S
N1019      O1023   1.262       .  A
N1019      O1024   1.262       .  A
N1022      O1026   1.262       .  A
N1022      O1025   1.262       .  A
C1027      C1028   1.404       .  A
C1027      C1032   1.406       .  A
C1027      H1034   1.083       .  S
C1028      C1029   1.408       .  A
C1029      C1030   1.396       .  A
C1029      N1036   1.430       .  S
C1030      C1031   1.404       .  A
C1030      H1035   1.083       .  S
C1031      C1032   1.411       .  A
C1032      N1033   1.428       .  S
N1033      O1037   1.262       .  A
N1033      O1038   1.262       .  A
N1036      O1040   1.262       .  A
N1036      O1039   1.261       .  A
C1041      C1042   1.409       .  A
C1041      C1046   1.398       .  A
C1041      H1048   1.082       .  S
C1042      C1043   1.413       .  A
C1043      C1044   1.405       .  A
C1043      N1050   1.428       .  S
C1044      C1045   1.403       .  A
C1044      H1049   1.082       .  S
C1045      C1046   1.404       .  A
C1046      N1047   1.429       .  S
N1047      O1051   1.262       .  A
N1047      O1052   1.262       .  A
N1050      O1054   1.262       .  A
N1050      O1053   1.262       .  A
C1055      C1056   1.406       .  A
C1055      C1060   1.406       .  A
C1055      H1062   1.083       .  S
C1056      C1057   1.417       .  A
C1057      C1058   1.398       .  A
C1057      N1064   1.432       .  S
C1058      C1059   1.402       .  A
C1058      H1063   1.084       .  S
C1059      C1060   1.410       .  A
C1060      N1061   1.427       .  S
N1061      O1065   1.261       .  A
N1061      O1066   1.262       .  A
N1064      O1068   1.262       .  A
N1064      O1067   1.262       .  A
C1069      C1070   1.407       .  A
C1069      C1074   1.410       .  A
C1069      H1076   1.084       .  S
C1070      C1071   1.416       .  A
C1071      C1072   1.400       .  A
C1071      N1078   1.432       .  S
C1072      C1073   1.398       .  A
C1072      H1077   1.085       .  S
C1073      C1074   1.411       .  A
C1074      N1075   1.428       .  S
N1075      O1079   1.262       .  A
N1075      O1080   1.262       .  A
N1078      O1082   1.262       .  A
N1078      O1081   1.261       .  A
C1083      C1084   1.404       .  A
C1083      C1088   1.415       .  A
C1083      H1090   1.084       .  S
C1084      C1085   1.426       .  A
C1085      C1086   1.396       .  A
C1085      N1092   1.432       .  S
C1086      C1087   1.398       .  A
C1086      H1091   1.084       .  S
C1087      C1088   1.420       .  A
C1088      N1089   1.428       .  S
N1089      O1093   1.262       .  A
N1089      O1094   1.262       .  A
N1092      O1096   1.262       .  A
N1092      O1095   1.262       .  A
C1097      C1098   1.407       .  A
C1097      C1102   1.404       .  A
C1097      H1104   1.082       .  S
C1098      C1099   1.410       .  A
C1099      C1100   1.399       .  A
C1099      N1106   1.430       .  S
C1100      C1101   1.405       .  A
C1100      H1105   1.083       .  S
C1101      C1102   1.409       .  A
C1102      N1103   1.429       .  S
N1103      O1107   1.262       .  A
N1103      O1108   1.262       .  A
N1106      O1110   1.262       .  A
N1106      O1109   1.262       .  A
