geometry optimzed in LAMMPS
_audit_creation_date              2020-11-30 
_audit_creation_method            'lammps2cif' 
_symmetry_space_group_name_H-M    'P1' 
_symmetry_Int_Tables_number       1 
_symmetry_cell_setting            triclinic 
loop_ 
_symmetry_equiv_pos_as_xyz 
  x,y,z 
_cell_length_a                    79.68549043 
_cell_length_b                    79.69434097254619 
_cell_length_c                    79.639083693392 
_cell_angle_alpha                 90.10688153454238 
_cell_angle_beta                  90.23466278219045 
_cell_angle_gamma                 90.35066724431321 
loop_ 
_atom_site_label 
_atom_site_type_symbol 
_atom_site_fract_x 
_atom_site_fract_y 
_atom_site_fract_z 
_atom_site_charge 
O1          O  0.51124669  0.48628677  0.45435028    -0.76700
C2          C  0.46679169  0.51773013  0.45837616     0.84400
O3          O  0.52688155  0.53240042  0.49030506    -0.77800
O4          O  0.47119528  0.52441893  0.51268050    -0.79300
O5          O  0.48140715  0.46572636  0.50378923    -0.79100
O6          O  0.51080321  0.46561743  0.47316884    -0.77700
Zn7        Zn  0.50235439  0.50659409  0.46621810     1.55700
O8          O  0.46147883  0.48531338  0.50339642    -0.79100
Cd9        Cd  0.50221072  0.47788530  0.49425744     1.59700
Cd10       Cd  0.51193921  0.51660070  0.50442677     1.59600
O11         O  0.52081650  0.47598775  0.51205735    -0.79100
O12         O  0.49758340  0.50197636  0.48955840    -1.89600
Cd13       Cd  0.47345797  0.50638845  0.49426116     1.59900
O14         O  0.52767435  0.50229223  0.51917608    -0.79000
O15         O  0.46129365  0.51492538  0.47308141    -0.77700
C16         C  0.52840396  0.53355895  0.47446293     0.84800
C17         C  0.51401799  0.47117958  0.45856925     0.84500
O18         O  0.48188368  0.51488789  0.45417485    -0.76600
C19         C  0.46653846  0.47059041  0.50677083     0.85300
O20         O  0.51994653  0.52453288  0.46429370    -0.76700
C21         C  0.52945318  0.48650112  0.52051144     0.85400
C22         C  0.48162363  0.53259410  0.52170385     0.85800
O23         O  0.49743677  0.53109264  0.52023094    -0.79200
O24         O  0.48831824  0.20703654  0.23646660    -0.76700
C25         C  0.53155981  0.20704022  0.27082148     0.84400
O26         O  0.47488204  0.24580674  0.28063879    -0.77800
O27         O  0.53320165  0.26174828  0.27595750    -0.79300
O28         O  0.52594207  0.25130452  0.21672964    -0.79100
O29         O  0.49241608  0.22482418  0.21529061    -0.77700
Zn30       Zn  0.49786800  0.21841200  0.25697929     1.55700
O31         O  0.54424745  0.25004286  0.23800091    -0.79100
Cd32       Cd  0.50322330  0.24512672  0.22750987     1.59700
Cd33       Cd  0.49219908  0.25781021  0.26518832     1.59600
O34         O  0.48746872  0.26506147  0.22352590    -0.79100
O35         O  0.50561743  0.24094843  0.25210847    -1.89600
Cd36       Cd  0.52981878  0.24312254  0.25831182     1.59900
O37         O  0.47925369  0.27345187  0.24899225    -0.79000
O38         O  0.53879723  0.22107015  0.26828913    -0.77700
C39         C  0.47174242  0.23019985  0.28225742     0.84800
C40         C  0.48689932  0.21098784  0.22106885     0.84500
O41         O  0.51631164  0.20431577  0.26683287    -0.76600
C42         C  0.54068987  0.25297075  0.22270885     0.85300
O43         O  0.47951274  0.21904514  0.27400194    -0.76700
C44         C  0.47901720  0.27461519  0.23304878     0.85400
C45         C  0.52354108  0.27233669  0.28286395     0.85800
O46         O  0.50779550  0.27270328  0.28005782    -0.79200
C47         C  0.79297119  0.77001364  0.79572354     0.82000
N48         N  0.78016115  0.77705366  0.80432367    -0.76300
C49         C  0.77192216  0.79038529  0.79780795     0.84500
N50         N  0.77648383  0.79672051  0.78270491    -0.76200
C51         C  0.78926797  0.78966025  0.77407803     0.84600
N52         N  0.79756778  0.77633342  0.78060121    -0.77900
C53         C  0.77126408  0.96710875  0.95237028     0.82000
N54         N  0.77909025  0.96031401  0.96587695    -0.76300
C55         C  0.79376412  0.96698450  0.97154586     0.84500
N56         N  0.80066298  0.98043183  0.96362931    -0.76200
C57         C  0.79282655  0.98722868  0.95009196     0.84600
N58         N  0.77815467  0.98052398  0.94445391    -0.77900
C59         C  0.96271324  0.78678946  0.98607647     0.82000
N60         N  0.97659940  0.79392877  0.97924012    -0.76300
C61         C  0.98395449  0.78676761  0.96567544     0.84500
N62         N  0.97733921  0.77256162  0.95886973    -0.76200
C63         C  0.96345914  0.76543507  0.96570570     0.84600
N64         N  0.95611077  0.77259136  0.97925592    -0.77900
C65         C  0.96385775  0.95559945  0.77163812     0.82000
N66         N  0.95716118  0.97031681  0.77684794    -0.76300
C67         C  0.96353634  0.97824519  0.79056620     0.84500
N68         N  0.97651944  0.97138539  0.79916584    -0.76200
C69         C  0.98320957  0.95666126  0.79395793     0.84600
N70         N  0.97683943  0.94873504  0.78022966    -0.77900
N71         N  0.09179848  0.87190218  0.88130092    -0.34800
N72         N  0.11887076  0.85407729  0.89837833    -0.55300
N73         N  0.14330985  0.87464496  0.88061056    -0.34800
N74         N  0.11623705  0.89394450  0.86528986    -0.55300
C75         C  0.08291411  0.86328920  0.89291513     0.28800
C76         C  0.08153247  0.88366995  0.87472964     0.28800
C77         C  0.15343297  0.86653134  0.89152147     0.28800
C78         C  0.15200298  0.88798202  0.87469188     0.28800
C79         C  0.10574392  0.84477529  0.90377336     0.37400
C80         C  0.13290282  0.84563603  0.90263379     0.37400
C81         C  0.10232624  0.89895716  0.85700336     0.37400
C82         C  0.12944386  0.90090533  0.85726276     0.37400
C83         C  0.06669585  0.86953444  0.89354540    -0.20100
C84         C  0.06581905  0.88235074  0.88204989    -0.20100
C85         C  0.16884056  0.87469615  0.89240967    -0.20100
C86         C  0.16792577  0.88825672  0.88181762    -0.20100
C87         C  0.11146787  0.83045125  0.91177277    -0.21100
C88         C  0.12868618  0.83096385  0.91099385    -0.21100
C89         C  0.10669951  0.90938337  0.84377923    -0.21100
C90         C  0.12389468  0.91064016  0.84396209    -0.21100
C91         C  0.08873839  0.84949306  0.90242089    -0.16500
C92         C  0.08572706  0.89508847  0.86183295    -0.16500
C93         C  0.14634924  0.89929966  0.86231038    -0.16500
C94         C  0.14943060  0.85157066  0.90011748    -0.16500
H95         H  0.05648772  0.86525406  0.90140660     0.16400
H96         H  0.05484442  0.88984660  0.87939365     0.16400
H97         H  0.17964435  0.87123118  0.89989096     0.16400
H98         H  0.17791528  0.89721516  0.87951685     0.16400
H99         H  0.10402403  0.82071422  0.91765815     0.14700
H100        H  0.13712796  0.82174222  0.91623453     0.14700
H101        H  0.09837097  0.91557870  0.83502590     0.14700
H102        H  0.13143400  0.91796310  0.83535780     0.14700
H103        H  0.10389665  0.86934057  0.87743232     0.28000
H104        H  0.13153074  0.87070781  0.87666169     0.28000
N105        N  0.87455552  0.88069036  0.08421506    -0.34800
N106        N  0.88823157  0.86084627  0.11186386    -0.55300
N107        N  0.87160612  0.88296707  0.13584174    -0.34800
N108        N  0.85608141  0.90132267  0.10820190    -0.55300
C109        C  0.88134350  0.86782819  0.07549849     0.28800
C110        C  0.86455989  0.88931858  0.07355427     0.28800
C111        C  0.87734736  0.87095277  0.14631119     0.28800
C112        C  0.86011462  0.89198692  0.14436786     0.28800
C113        C  0.89660278  0.85365766  0.09903127     0.37400
C114        C  0.89535803  0.85516849  0.12617371     0.37400
C115        C  0.85226620  0.90973981  0.09399046     0.37400
C116        C  0.85054352  0.91075287  0.12114362     0.37400
C117        C  0.87581908  0.86847498  0.05896544    -0.20100
C118        C  0.86525548  0.88201196  0.05773823    -0.20100
C119        C  0.86957904  0.87249091  0.16179577    -0.20100
C120        C  0.85868980  0.88573962  0.16056490    -0.20100
C121        C  0.90892809  0.84309748  0.10523344    -0.21100
C122        C  0.90816265  0.84408241  0.12242225    -0.21100
C123        C  0.84401991  0.92450848  0.09792511    -0.21100
C124        C  0.84292953  0.92514704  0.11511934    -0.21100
C125        C  0.89286863  0.85591473  0.08182107    -0.16500
C126        C  0.85524580  0.90388471  0.07750062    -0.16500
C127        C  0.85146166  0.90616106  0.13824917    -0.16500
C128        C  0.88992593  0.85913288  0.14256238    -0.16500
H129        H  0.87907151  0.86007884  0.04880302     0.16400
H130        H  0.85881899  0.88600331  0.04645029     0.16400
H131        H  0.87156809  0.86488068  0.17286271     0.16400
H132        H  0.85069755  0.89029852  0.17051792     0.16400
H133        H  0.91755202  0.83544392  0.09812550     0.14700
H134        H  0.91603786  0.83729341  0.13115065     0.14700
H135        H  0.83916329  0.93379344  0.08930628     0.14700
H136        H  0.83707555  0.93501215  0.12234426     0.14700
H137        H  0.87718034  0.88385373  0.09653743     0.28000
H138        H  0.87598512  0.88544448  0.12389105     0.28000
N139        N  0.87148744  0.87251182  0.66473178    -0.34800
N140        N  0.85345145  0.85493911  0.63791813    -0.55300
N141        N  0.87265069  0.87368848  0.61314484    -0.34800
N142        N  0.89224054  0.88955966  0.63989542    -0.55300
C143        C  0.86311235  0.86074229  0.67364714     0.28800
C144        C  0.88386527  0.87867229  0.67469485     0.28800
C145        C  0.86493868  0.86229165  0.60310893     0.28800
C146        C  0.88509712  0.88084441  0.60412835     0.28800
C147        C  0.84407511  0.84994848  0.65109204     0.37400
C148        C  0.84496164  0.85026369  0.62395147     0.37400
C149        C  0.89799661  0.89732580  0.65388330     0.37400
C150        C  0.89825865  0.89832568  0.62670431     0.37400
C151        C  0.87011353  0.85954953  0.68957971    -0.20100
C152        C  0.88321928  0.87085374  0.69023629    -0.20100
C153        C  0.87247123  0.86232579  0.58743334    -0.20100
C154        C  0.88518098  0.87405085  0.58806792    -0.20100
C155        C  0.82966765  0.84181311  0.64547946    -0.21100
C156        C  0.83024204  0.84199371  0.62826548    -0.21100
C157        C  0.90798248  0.91095193  0.64955981    -0.21100
C158        C  0.90812560  0.91160051  0.63232761    -0.21100
C159        C  0.84886818  0.85163379  0.66807001    -0.16500
C160        C  0.89517345  0.89170522  0.67044013    -0.16500
C161        C  0.89579845  0.89391784  0.60969277    -0.16500
C162        C  0.85074675  0.85254431  0.60740110    -0.16500
H163        H  0.86616228  0.85141410  0.69970877     0.16400
H164        H  0.89129485  0.87311650  0.70097709     0.16400
H165        H  0.86908366  0.85478193  0.57660833     0.16400
H166        H  0.89349031  0.87725596  0.57782896     0.16400
H167        H  0.81986194  0.83616910  0.65299510     0.14700
H168        H  0.82094772  0.83655657  0.61989498     0.14700
H169        H  0.91458137  0.91945615  0.65793495     0.14700
H170        H  0.91487773  0.92068252  0.62480605     0.14700
H171        H  0.86830684  0.87676494  0.65286623     0.28000
H172        H  0.86900406  0.87712698  0.62512087     0.28000
N173        N  0.87905387  0.65897740  0.87720889    -0.34800
N174        N  0.86305314  0.63446906  0.85498451    -0.55300
N175        N  0.87844320  0.60747616  0.87433912    -0.34800
N176        N  0.89619170  0.63205163  0.89504609    -0.55300
C177        C  0.87262932  0.66918731  0.86529586     0.28800
C178        C  0.89071060  0.66790790  0.88586616     0.28800
C179        C  0.87218487  0.59866680  0.86119110     0.28800
C180        C  0.88925476  0.59737653  0.88258549     0.28800
C181        C  0.85484609  0.64835096  0.84987697     0.37400
C182        C  0.85500195  0.62122756  0.84795668     0.37400
C183        C  0.90122390  0.64516522  0.90461709     0.37400
C184        C  0.90033844  0.61801698  0.90354050     0.37400
C185        C  0.88012275  0.68490056  0.86652935    -0.20100
C186        C  0.89156667  0.68408273  0.87946935    -0.20100
C187        C  0.87896974  0.58266563  0.86118937    -0.20100
C188        C  0.88972712  0.58184749  0.87469759    -0.20100
C189        C  0.84167968  0.64393471  0.83928535    -0.21100
C190        C  0.84179877  0.62674258  0.83804237    -0.21100
C191        C  0.90885084  0.63944609  0.91918542    -0.21100
C192        C  0.90825614  0.62223077  0.91852324    -0.21100
C193        C  0.85963603  0.66497001  0.85389937    -0.16500
C194        C  0.89995287  0.66216946  0.89990241    -0.16500
C195        C  0.89808855  0.60150577  0.89745369    -0.16500
C196        C  0.85982355  0.60430309  0.84979167    -0.16500
H197        H  0.87758873  0.69584044  0.85891445     0.16400
H198        H  0.89951046  0.69430188  0.88376146     0.16400
H199        H  0.87635124  0.57256762  0.85243652     0.16400
H200        H  0.89700842  0.57101265  0.87833263     0.16400
H201        H  0.83299000  0.65223205  0.83299416     0.14700
H202        H  0.83318176  0.61917969  0.83064987     0.14700
H203        H  0.91438928  0.64689286  0.92917245     0.14700
H204        H  0.91328476  0.61379253  0.92788774     0.14700
H205        H  0.87498524  0.64691602  0.87989178     0.28000
H206        H  0.87479980  0.61935412  0.87805377     0.28000
N207        N  0.66160016  0.87150378  0.88420310    -0.34800
N208        N  0.63443349  0.89061371  0.89928887    -0.55300
N209        N  0.61014737  0.86663149  0.88562234    -0.34800
N210        N  0.63721933  0.84878844  0.86878330    -0.55300
C211        C  0.66997857  0.88549413  0.88910536     0.28800
C212        C  0.67149774  0.86329355  0.87320178     0.28800
C213        C  0.59972787  0.87865235  0.89140062     0.28800
C214        C  0.60117754  0.85681972  0.87495979     0.28800
C215        C  0.64761347  0.89864586  0.90644651     0.37400
C216        C  0.62059051  0.89595339  0.90736739     0.37400
C217        C  0.65140183  0.84087900  0.86413314     0.37400
C218        C  0.62431539  0.83858028  0.86447736     0.37400
C219        C  0.68550421  0.88606875  0.88128882    -0.20100
C220        C  0.68646915  0.87205639  0.87126743    -0.20100
C221        C  0.58383672  0.87623695  0.88460889    -0.20100
C222        C  0.58474925  0.86248414  0.87423288    -0.20100
C223        C  0.64211668  0.90931472  0.91901689    -0.21100
C224        C  0.62497709  0.90761140  0.91960078    -0.21100
C225        C  0.64749267  0.82561009  0.85665316    -0.21100
C226        C  0.63031485  0.82417262  0.85683312    -0.21100
C227        C  0.66437663  0.89731062  0.90104149    -0.16500
C228        C  0.66768833  0.84782464  0.86533770    -0.16500
C229        C  0.60719315  0.84261062  0.86625206    -0.16500
C230        C  0.60399157  0.89142836  0.90300767    -0.16500
H231        H  0.69517822  0.89556785  0.88269738     0.16400
H232        H  0.69701602  0.86871303  0.86344593     0.16400
H233        H  0.57272424  0.88364378  0.88684464     0.16400
H234        H  0.57445520  0.85727812  0.86695853     0.16400
H235        H  0.64964021  0.91761947  0.92679489     0.14700
H236        H  0.61667934  0.91435396  0.92792127     0.14700
H237        H  0.65609016  0.81660052  0.85133113     0.14700
H238        H  0.62306615  0.81381494  0.85172036     0.14700
H239        H  0.65018500  0.86732070  0.88880437     0.28000
H240        H  0.62247087  0.86480574  0.88931177     0.28000
N241        N  0.87737697  0.09401704  0.86285248    -0.34800
N242        N  0.89675574  0.11861395  0.84365450    -0.55300
N243        N  0.87895773  0.14562363  0.86070803    -0.34800
N244        N  0.85796838  0.12100503  0.87811908    -0.55300
C245        C  0.88569309  0.08374607  0.85225294     0.28800
C246        C  0.86476988  0.08498219  0.86981936     0.28800
C247        C  0.88714760  0.15454098  0.84881089     0.28800
C248        C  0.86747129  0.15587091  0.86772002     0.28800
C249        C  0.90533083  0.10467696  0.83941307     0.37400
C250        C  0.90553917  0.13181470  0.83759179     0.37400
C251        C  0.85106837  0.10784529  0.88633652     0.37400
C252        C  0.85258675  0.13504658  0.88592557     0.37400
C253        C  0.87843364  0.06787966  0.85267776    -0.20100
C254        C  0.86524155  0.06866387  0.86372106    -0.20100
C255        C  0.88088794  0.17075603  0.84840591    -0.20100
C256        C  0.86853611  0.17160809  0.86036920    -0.20100
C257        C  0.91955488  0.10903124  0.83038634    -0.21100
C258        C  0.91965798  0.12622242  0.82918997    -0.21100
C259        C  0.84093020  0.11357009  0.89921674    -0.21100
C260        C  0.84193310  0.13078523  0.89899276    -0.21100
C261        C  0.90000491  0.08806071  0.84267498    -0.16500
C262        C  0.85331892  0.09076877  0.88206407    -0.16500
C263        C  0.85650762  0.15166097  0.88099621    -0.16500
C264        C  0.90061814  0.14877026  0.83886294    -0.16500
H265        H  0.88223145  0.05685135  0.84574405     0.16400
H266        H  0.85697706  0.05833950  0.86693317     0.16400
H267        H  0.88487589  0.18098401  0.84040655     0.16400
H268        H  0.86115532  0.18258147  0.86329425     0.16400
H269        H  0.92878776  0.10069037  0.82504268     0.14700
H270        H  0.92901983  0.13373305  0.82280996     0.14700
H271        H  0.83357932  0.10612747  0.90788107     0.14700
H272        H  0.83544324  0.13919683  0.90740949     0.14700
H273        H  0.88068445  0.10623094  0.86579657     0.28000
H274        H  0.88162844  0.13353262  0.86447997     0.28000
O275        O  0.26946405  0.46241173  0.23304364    -0.76700
C276        C  0.23544230  0.46853133  0.27532428     0.84400
O277        O  0.22655945  0.49849112  0.21225178    -0.77800
O278        O  0.22942712  0.52206918  0.26838483    -0.79300
O279        O  0.28927896  0.51222021  0.26330881    -0.79100
O280        O  0.29058639  0.48086849  0.23396970    -0.77700
Zn281      Zn  0.24894364  0.47500814  0.24025175     1.55700
O282        O  0.26785654  0.51392183  0.28122103    -0.79100
Cd283      Cd  0.27846974  0.50250389  0.24162751     1.59700
Cd284      Cd  0.24081288  0.51306869  0.22858673     1.59600
O285        O  0.28229506  0.52021526  0.22325548    -0.79100
O286        O  0.25389936  0.49846008  0.24448987    -1.89600
Cd287      Cd  0.24773864  0.50405501  0.26806999     1.59900
O288        O  0.25680617  0.52785660  0.21440574    -0.79000
O289        O  0.23833823  0.48337957  0.28048890    -0.77700
C290        C  0.22484738  0.48261824  0.21150695     0.84800
C291        C  0.28482034  0.46623380  0.23093251     0.84500
O292        O  0.23891051  0.46376831  0.26049603    -0.76600
C293        C  0.28317364  0.51636821  0.27746453     0.85300
O294        O  0.23244542  0.47276300  0.22143838    -0.76700
C295        C  0.27274139  0.52895542  0.21395303     0.85400
C296        C  0.22192264  0.53057839  0.25718753     0.85800
O297        O  0.22475176  0.52882404  0.24155863    -0.79200
O298        O  0.26294542  0.21752251  0.52314840    -0.76700
C299        C  0.22073113  0.21290663  0.48855106     0.84400
O300        O  0.27801137  0.24770352  0.47245926    -0.77800
O301        O  0.21988980  0.26527237  0.47572071    -0.79300
O302        O  0.22962107  0.26775420  0.53445534    -0.79100
O303        O  0.26039766  0.23919265  0.54070946    -0.77700
Zn304      Zn  0.25473617  0.22557682  0.50072402     1.55700
O305        O  0.20989531  0.26141091  0.51544059    -0.79100
Cd306      Cd  0.25138057  0.25760965  0.52490731     1.59700
Cd307      Cd  0.26116347  0.26265886  0.48536082     1.59600
O308        O  0.26888852  0.27664253  0.52470056    -0.79100
O309        O  0.24782856  0.24881016  0.50173416    -1.89600
Cd310      Cd  0.22339659  0.25025638  0.49635085     1.59900
O311        O  0.27492657  0.28117031  0.49770226    -0.79000
O312        O  0.21361447  0.22706998  0.49002716    -0.77700
C313        C  0.28121158  0.23215088  0.47401077     0.84800
C314        C  0.26461702  0.22413656  0.53760644     0.84500
O315        O  0.23605347  0.21064046  0.49238395    -0.76600
C316        C  0.21453272  0.26819482  0.52918586     0.85300
O317        O  0.27353187  0.22278863  0.48438128    -0.76700
C318        C  0.27663900  0.28458550  0.51324598     0.85400
C319        C  0.22953071  0.27368365  0.46619485     0.85800
O320        O  0.24541266  0.27407840  0.46805976    -0.79200
O321        O  0.51322599  0.75926305  0.79193843    -0.76700
C322        C  0.46780042  0.72934934  0.78457175     0.84400
O323        O  0.52974417  0.71722716  0.75305194    -0.77800
O324        O  0.47303024  0.72526703  0.73108009    -0.79300
O325        O  0.48373366  0.78445937  0.74493108    -0.79100
O326        O  0.51425374  0.78119759  0.77462071    -0.77700
Zn327      Zn  0.50385218  0.74012526  0.77829906     1.55700
O328        O  0.46407905  0.76462523  0.74162577    -0.79100
Cd329      Cd  0.50463163  0.77114430  0.75264906     1.59700
Cd330      Cd  0.51401239  0.73310068  0.73959493     1.59600
O331        O  0.52248871  0.77445920  0.73436349    -0.79100
O332        O  0.49967031  0.74670856  0.75525584    -1.89600
Cd333      Cd  0.47553127  0.74296989  0.74973341     1.59900
O334        O  0.52871984  0.74880457  0.72489283    -0.79000
O335        O  0.46270927  0.73369076  0.77008663    -0.77700
C336        C  0.53040942  0.71442972  0.76878228     0.84800
C337        C  0.51693158  0.77448265  0.78885516     0.84500
O338        O  0.48297134  0.73114972  0.78929202    -0.76600
C339        C  0.46902835  0.77978677  0.74062086     0.85300
O340        O  0.52112334  0.72204685  0.77920474    -0.76700
C341        C  0.53052483  0.76469982  0.72467648     0.85400
C342        C  0.48328990  0.71668073  0.72247157     0.85800
O343        O  0.49915476  0.71814972  0.72401458    -0.79200
O344        O  0.21431362  0.73088030  0.98927889    -0.76700
C345        C  0.21886133  0.76739426  0.03006942     0.84400
O346        O  0.25309282  0.77310668  0.96978019    -0.77800
O347        O  0.27281996  0.77144891  0.02682817    -0.79300
O348        O  0.26192703  0.71181279  0.02263551    -0.79100
O349        O  0.23213309  0.70958891  0.99217432    -0.77700
Zn350      Zn  0.22706396  0.75163629  0.99624670     1.55700
O351        O  0.26231019  0.73361119  0.04034211    -0.79100
Cd352      Cd  0.25371281  0.72178701  0.00016882     1.59700
Cd353      Cd  0.26606950  0.75861117  0.98691198     1.59600
O354        O  0.27214373  0.71690261  0.98271831    -0.79100
O355        O  0.25004790  0.74646650  0.00218994    -1.89600
Cd356      Cd  0.25418768  0.75350301  0.02592386     1.59900
O357        O  0.28101824  0.74197266  0.97376517    -0.79000
O358        O  0.23317046  0.76430215  0.03644967    -0.77700
C359        C  0.23738218  0.77514767  0.96788442     0.84800
C360        C  0.21782098  0.71536884  0.98815739     0.84500
O361        O  0.21494762  0.76307289  0.01517751    -0.76600
C362        C  0.26491574  0.71822877  0.03699394     0.85300
O363        O  0.22658508  0.76766935  0.97693435    -0.76700
C364        C  0.28162396  0.72601302  0.97364825     0.85400
C365        C  0.28224569  0.77831556  0.01594815     0.85800
O366        O  0.28149054  0.77474019  0.00038452    -0.79200
O367        O  0.01199338  0.48300902  0.97070617    -0.76700
C368        C  0.96698630  0.51398838  0.97466337     0.84400
O369        O  0.02842128  0.53042896  0.00409595    -0.77800
O370        O  0.97358064  0.52417059  0.02802034    -0.79300
O371        O  0.98288220  0.46452231  0.02113648    -0.79100
O372        O  0.01172062  0.46314356  0.99035076    -0.77700
Zn373      Zn  0.00289439  0.50364453  0.98196051     1.55700
O374        O  0.96332297  0.48446830  0.02122136    -0.79100
Cd375      Cd  0.00363041  0.47627641  0.01109818     1.59700
Cd376      Cd  0.01410380  0.51525699  0.01966531     1.59600
O377        O  0.02246857  0.47482337  0.02857920    -0.79100
O378        O  0.99912143  0.50020260  0.00570897    -1.89600
Cd379      Cd  0.97520820  0.50498285  0.01090601     1.59900
O380        O  0.03012190  0.50117287  0.03472449    -0.79000
O381        O  0.96223341  0.51228988  0.98978059    -0.77700
C382        C  0.02866497  0.53134745  0.98813899     0.84800
C383        C  0.01472572  0.46805757  0.97548291     0.84500
O384        O  0.98187159  0.51081869  0.96999433    -0.76600
C385        C  0.96817526  0.46964669  0.02442710     0.85300
O386        O  0.01966154  0.52199572  0.97877779    -0.76700
C387        C  0.03154940  0.48535278  0.03651726     0.85400
C388        C  0.98418029  0.53288761  0.03628017     0.85800
O389        O  0.99997981  0.53100601  0.03486418    -0.79200
O390        O  0.28268338  0.01291428  0.76166854    -0.76700
C391        C  0.27965149  0.96468032  0.73543475     0.84400
O392        O  0.24638833  0.02223710  0.71462123    -0.77800
O393        O  0.22547016  0.96667218  0.72895713    -0.79300
O394        O  0.23509931  0.98405470  0.78615045    -0.79100
O395        O  0.26365298  0.01494456  0.78201508    -0.77700
Zn396      Zn  0.27102258  0.00110408  0.74258983     1.55700
O397        O  0.23550379  0.96184443  0.76904027    -0.79100
Cd398      Cd  0.24298446  0.00365861  0.77126579     1.59700
Cd399      Cd  0.23252008  0.00851464  0.73187592     1.59600
O400        O  0.22419836  0.02113943  0.77144202    -0.79100
O401        O  0.24778843  0.99632456  0.74787390    -1.89600
Cd402      Cd  0.24379755  0.97162059  0.74649508     1.59900
O403        O  0.21690733  0.02498095  0.74461592    -0.79000
O404        O  0.26510354  0.95912061  0.73898013    -0.77700
C405        C  0.26221766  0.02376356  0.71306570     0.84800
C406        C  0.27823229  0.01771655  0.77620634     0.84500
O407        O  0.28353354  0.98013779  0.73659990    -0.76600
C408        C  0.23262044  0.96854555  0.78324444     0.85300
O409        O  0.27251933  0.01639869  0.72274062    -0.76700
C410        C  0.21538163  0.02821842  0.76020389     0.85400
C411        C  0.21646203  0.97563837  0.71933600     0.85800
O412        O  0.21755019  0.99157747  0.71883856    -0.79200
O413        O  0.71412824  0.73793934  0.47510973    -0.76700
C414        C  0.71338675  0.76531212  0.52206254     0.84400
O415        O  0.74842161  0.78722080  0.46583275    -0.77800
O416        O  0.76689894  0.77460263  0.52319130    -0.79300
O417        O  0.76277372  0.71721684  0.50515807    -0.79100
O418        O  0.73444021  0.71884402  0.47400494    -0.77700
Zn419      Zn  0.72433797  0.75817714  0.48626949     1.55700
O420        O  0.75960427  0.73381518  0.52750260    -0.79100
Cd421      Cd  0.75415508  0.73131695  0.48526634     1.59700
Cd422      Cd  0.76244045  0.77131297  0.48095292     1.59600
O423        O  0.77348389  0.73244821  0.46839614    -0.79100
O424        O  0.74756313  0.75431592  0.49233956    -1.89600
Cd425      Cd  0.75013568  0.75576500  0.51725293     1.59900
O426        O  0.78018388  0.75959979  0.46596229    -0.79000
O427        O  0.72763981  0.76194154  0.52843694    -0.77700
C428        C  0.73266579  0.78748757  0.46313619     0.84800
C429        C  0.71951974  0.72353597  0.47098417     0.84500
O430        O  0.71048819  0.76431846  0.50638131    -0.76600
C431        C  0.76418335  0.72006739  0.52081289     0.85300
O432        O  0.72258793  0.77722089  0.47004363    -0.76700
C433        C  0.78249688  0.74419465  0.46242224     0.85400
C434        C  0.77549570  0.78505690  0.51471662     0.85800
O435        O  0.77513456  0.78561823  0.49873452    -0.79200
O436        O  0.01771017  0.77708501  0.27518664    -0.76700
C437        C  0.97493037  0.74342292  0.27908608     0.84400
O438        O  0.02836960  0.73139935  0.23672979    -0.77800
O439        O  0.96897237  0.73711086  0.22499741    -0.79300
O440        O  0.97870097  0.79615102  0.23246667    -0.79100
O441        O  0.01346645  0.79763114  0.25670839    -0.77700
Zn442      Zn  0.00786875  0.75626017  0.26486511     1.55700
O443        O  0.95988223  0.77567761  0.23640872    -0.79100
Cd444      Cd  0.00147823  0.78494472  0.23740902     1.59700
Cd445      Cd  0.01046886  0.74660294  0.22547757     1.59600
O446        O  0.01571636  0.78771793  0.21606955    -0.79100
O447        O  0.99868198  0.76064147  0.24278165    -1.89600
Cd448      Cd  0.97422030  0.75517577  0.24274071     1.59900
O449        O  0.02210294  0.76172466  0.20775497    -0.79000
O450        O  0.96663876  0.74603726  0.26568320    -0.77700
C451        C  0.03272930  0.73030685  0.25209017     0.84800
C452        C  0.01914876  0.79230656  0.27065090     0.84500
O453        O  0.99046124  0.74689287  0.28043741    -0.76600
C454        C  0.96367531  0.79066845  0.23243575     0.85300
O455        O  0.02607353  0.73913513  0.26354532    -0.76700
C456        C  0.02270571  0.77759432  0.20594383     0.85400
C457        C  0.97768528  0.72926368  0.21423206     0.85800
O458        O  0.99346873  0.73134566  0.21276464    -0.79200
O459        O  0.53827245  0.02530857  0.97861584    -0.76700
C460        C  0.52920607  0.99470358  0.02403741     0.84400
O461        O  0.50188097  0.98033148  0.96154446    -0.77800
O462        O  0.47519499  0.99091935  0.01539942    -0.79300
O463        O  0.48907962  0.04907286  0.00454931    -0.79100
O464        O  0.51981734  0.04606742  0.97582632    -0.77700
Zn465      Zn  0.52497110  0.00570468  0.98766227     1.55700
O466        O  0.48658745  0.03001021  0.02491335    -0.79100
Cd467      Cd  0.49797771  0.03535837  0.98447756     1.59700
Cd468      Cd  0.48714942  0.99676673  0.97515277     1.59600
O469        O  0.48066291  0.03743974  0.96546448    -0.79100
O470        O  0.50144347  0.01129552  0.99024348    -1.89600
Cd471      Cd  0.49466432  0.00794225  0.01405925     1.59900
O472        O  0.47349416  0.01118587  0.95845100    -0.79000
O473        O  0.51418004  0.99819650  0.02800936    -0.77700
C474        C  0.51770542  0.97827709  0.96175399     0.84800
C475        C  0.53450708  0.04016889  0.97422592     0.84500
O476        O  0.53501331  0.99736446  0.00940995    -0.76600
C477        C  0.48503818  0.04490036  0.01940761     0.85300
O478        O  0.52744621  0.98700763  0.97099709    -0.76700
C479        C  0.47241156  0.02699579  0.95656066     0.93400
C480        C  0.46725672  0.98205422  0.00466736     0.85800
O481        O  0.47027220  0.98264826  0.98899675    -0.79200
C482        C  0.30118735  0.78208201  0.28627489     0.82000
N483        N  0.28772682  0.78995182  0.29294355    -0.76300
C484        C  0.28161697  0.80396946  0.28555512     0.84500
N485        N  0.28894946  0.81012017  0.27149884    -0.76200
C486        C  0.30241064  0.80223228  0.26482985     0.84600
N487        N  0.30853727  0.78820653  0.27220960    -0.77900
N488        N  0.37939073  0.66725455  0.36494946    -0.34800
N489        N  0.39785404  0.64173376  0.38311649    -0.55300
N490        N  0.37889150  0.61574290  0.36527329    -0.34800
N491        N  0.35900225  0.64120767  0.34866350    -0.55300
C492        C  0.38702994  0.67674529  0.37687541     0.28800
C493        C  0.36683737  0.67648780  0.35833808     0.28800
C494        C  0.38694907  0.60649607  0.37694814     0.28800
C495        C  0.36616489  0.60622813  0.35912263     0.28800
C496        C  0.40686616  0.65536696  0.38779369     0.37400
C497        C  0.40700782  0.62823228  0.38748939     0.37400
C498        C  0.35371346  0.65468279  0.33992622     0.37400
C499        C  0.35317177  0.62752368  0.34042639     0.37400
C500        C  0.37936513  0.69230425  0.37770157    -0.20100
C501        C  0.36663400  0.69215354  0.36598377    -0.20100
C502        C  0.37936575  0.59081702  0.37812998    -0.20100
C503        C  0.36623434  0.59065439  0.36688205    -0.20100
C504        C  0.42174791  0.65052133  0.39539336    -0.21100
C505        C  0.42185496  0.63329006  0.39516777    -0.21100
C506        C  0.34429792  0.64955716  0.32613430    -0.21100
C507        C  0.34392988  0.63231494  0.32647096    -0.21100
C508        C  0.40121722  0.67202224  0.38641215    -0.16500
C509        C  0.35616476  0.67148114  0.34501289    -0.16500
C510        C  0.35515701  0.61087524  0.34602736    -0.16500
C511        C  0.40152208  0.61147176  0.38581065    -0.16500
H512        H  0.38266728  0.70273175  0.38581925     0.16400
H513        H  0.35822106  0.70244289  0.36335905     0.16400
H514        H  0.38299021  0.58050449  0.38616607     0.16400
H515        H  0.35780959  0.58019035  0.36456660     0.16400
H516        H  0.43140609  0.65855108  0.40071575     0.14700
H517        H  0.43159958  0.62539222  0.40031664     0.14700
H518        H  0.33811125  0.65741925  0.31696312     0.14700
H519        H  0.33744688  0.62424530  0.31759202     0.14700
H520        H  0.38310447  0.65550321  0.36084328     0.28000
H521        H  0.38256369  0.62747937  0.36102199     0.28000
C522        C  0.48042717  0.96554086  0.28182608     0.82000
N523        N  0.47310830  0.97830554  0.29033413    -0.76300
C524        C  0.45958281  0.98619162  0.28368400     0.84500
N525        N  0.45332702  0.98126614  0.26858888    -0.76200
C526        C  0.46064138  0.96851990  0.26008620     0.84600
N527        N  0.47415537  0.96061027  0.26672511    -0.77900
N528        N  0.58614364  0.87393803  0.36364669    -0.34800
N529        N  0.61238324  0.89028310  0.34396289    -0.55300
N530        N  0.63773292  0.87244877  0.36315816    -0.34800
N531        N  0.61163675  0.85777201  0.38423556    -0.55300
C532        C  0.57710401  0.88585592  0.35568060     0.28800
C533        C  0.57664454  0.86796207  0.37636736     0.28800
C534        C  0.64747271  0.88325219  0.35441688     0.28800
C535        C  0.64708262  0.86660603  0.37605429     0.28800
C536        C  0.59879719  0.89537271  0.33521344     0.37400
C537        C  0.62591377  0.89391417  0.33444949     0.37400
C538        C  0.59792502  0.84976415  0.39019197     0.37400
C539        C  0.62508634  0.84957376  0.39041806     0.37400
C540        C  0.56154517  0.88730045  0.36331439    -0.20100
C541        C  0.56123932  0.87597182  0.37633077    -0.20100
C542        C  0.66330268  0.88411100  0.36170715    -0.20100
C543        C  0.66304971  0.87362334  0.37537613    -0.20100
C544        C  0.60372208  0.90245469  0.32010663    -0.21100
C545        C  0.62092389  0.90149066  0.31960378    -0.21100
C546        C  0.60268413  0.83652186  0.40040325    -0.21100
C547        C  0.61991598  0.83643112  0.40057782    -0.21100
C548        C  0.58218001  0.89486159  0.34125308    -0.16500
C549        C  0.58125075  0.85501133  0.38754106    -0.16500
C550        C  0.64192021  0.85444257  0.38784207    -0.16500
C551        C  0.64270729  0.89176844  0.33964132    -0.16500
H552        H  0.55139798  0.89557108  0.35980660     0.16400
H553        H  0.55084995  0.87387778  0.38480321     0.16400
H554        H  0.67396144  0.89149193  0.35759162     0.16400
H555        H  0.67349241  0.87134259  0.38378483     0.16400
H556        H  0.59577129  0.90794223  0.31055784     0.14700
H557        H  0.62886239  0.90613518  0.30961996     0.14700
H558        H  0.59459765  0.82798205  0.40721761     0.14700
H559        H  0.62773865  0.82778141  0.40750140     0.14700
H560        H  0.59778065  0.86947935  0.36007378     0.28000
H561        H  0.62571301  0.86856185  0.35993839     0.28000
N562        N  0.38377274  0.88210876  0.14966792    -0.34800
N563        N  0.39767727  0.90220470  0.12230696    -0.55300
N564        N  0.38037144  0.88071942  0.09801850    -0.34800
N565        N  0.36469307  0.86210248  0.12542713    -0.55300
C566        C  0.39074215  0.89490014  0.15849977     0.28800
C567        C  0.37339058  0.87368971  0.16013556     0.28800
C568        C  0.38611356  0.89294121  0.08775025     0.28800
C569        C  0.36857537  0.87194622  0.08941257     0.28800
C570        C  0.40629326  0.90912769  0.13523888     0.37400
C571        C  0.40462348  0.90826323  0.10809342     0.37400
C572        C  0.36077635  0.85352330  0.13949780     0.37400
C573        C  0.35892573  0.85287665  0.11236425     0.37400
C574        C  0.38497032  0.89439267  0.17491395    -0.20100
C575        C  0.37403325  0.88103378  0.17594283    -0.20100
C576        C  0.37808608  0.89172531  0.07229638    -0.20100
C577        C  0.36701430  0.87849622  0.07334860    -0.20100
C578        C  0.41863822  0.91985487  0.12921549    -0.21100
C579        C  0.41758746  0.91929842  0.11201459    -0.21100
C580        C  0.35227927  0.83883648  0.13536814    -0.21100
C581        C  0.35111035  0.83842397  0.11817005    -0.21100
C582        C  0.40257917  0.90667746  0.15238219    -0.16500
C583        C  0.36375520  0.85927614  0.15602294    -0.16500
C584        C  0.35963692  0.85781734  0.09537060    -0.16500
C585        C  0.39879671  0.90478091  0.09167841    -0.16500
H586        H  0.38826206  0.90279419  0.18511820     0.16400
H587        H  0.36730722  0.87719530  0.18708901     0.16400
H588        H  0.37998037  0.89956793  0.06137675     0.16400
H589        H  0.35876283  0.87419242  0.06338435     0.16400
H590        H  0.42739061  0.92741163  0.13645374     0.14700
H591        H  0.42535685  0.92635588  0.10339405     0.14700
H592        H  0.34727223  0.82949252  0.14386182     0.14700
H593        H  0.34502293  0.82869920  0.11080102     0.14700
H594        H  0.38652062  0.87886823  0.13741174     0.28000
H595        H  0.38483044  0.87801082  0.10991513     0.28000
C596        C  0.26731212  0.96423544  0.47034383     0.82000
N597        N  0.27379567  0.97857682  0.46376693    -0.76300
C598        C  0.28756545  0.98584358  0.47085535     0.84500
N599        N  0.29498462  0.97863706  0.48436766    -0.76200
C600        C  0.28854743  0.96430867  0.49095161     0.84600
N601        N  0.27477262  0.95703650  0.48387447    -0.77900
C602        C  0.46079985  0.79276301  0.48072005     0.82000
N603        N  0.47414955  0.80065011  0.47366115    -0.76300
C604        C  0.48113462  0.79435351  0.45950982     0.84500
N605        N  0.47471661  0.78024636  0.45236321    -0.76200
C606        C  0.46138621  0.77234704  0.45941766     0.84600
N607        N  0.45436544  0.77863467  0.47357509    -0.77900
N608        N  0.38330959  0.87818545  0.59265617    -0.34800
N609        N  0.36428871  0.89598562  0.61825959    -0.55300
N610        N  0.38120882  0.87665505  0.64433703    -0.34800
N611        N  0.39854844  0.85727603  0.61866156    -0.55300
C612        C  0.37217229  0.88640248  0.58283201     0.28800
C613        C  0.39070428  0.86636135  0.58305160     0.28800
C614        C  0.36943830  0.88454602  0.65356745     0.28800
C615        C  0.38729760  0.86396590  0.65376472     0.28800
C616        C  0.35960765  0.90497675  0.60469065     0.37400
C617        C  0.35890445  0.90450023  0.63186537     0.37400
C618        C  0.40735265  0.85176965  0.60530552     0.37400
C619        C  0.40593945  0.85072220  0.63244522     0.37400
C620        C  0.37273795  0.87991724  0.56666357    -0.20100
C621        C  0.38444533  0.86731312  0.56679019    -0.20100
C622        C  0.36822100  0.87694316  0.66918459    -0.20100
C623        C  0.37948813  0.86396383  0.66930813    -0.20100
C624        C  0.35102334  0.91921314  0.60969465    -0.21100
C625        C  0.35060888  0.91892901  0.62692094    -0.21100
C626        C  0.42026259  0.84142983  0.61061456    -0.21100
C627        C  0.41936276  0.84076279  0.62781371    -0.21100
C628        C  0.36194630  0.89995374  0.58786090    -0.16500
C629        C  0.40332235  0.85511556  0.58835930    -0.16500
C630        C  0.40021250  0.85286960  0.64905802    -0.16500
C631        C  0.36023420  0.89879217  0.64857521    -0.16500
H632        H  0.36549927  0.88387022  0.55585878     0.16400
H633        H  0.38790414  0.85968505  0.55610550     0.16400
H634        H  0.36007556  0.88038949  0.67945758     0.16400
H635        H  0.38168909  0.85550378  0.67969283     0.16400
H636        H  0.34547867  0.92871748  0.60176176     0.14700
H637        H  0.34463828  0.92814020  0.63487716     0.14700
H638        H  0.42928988  0.83491690  0.60289703     0.14700
H639        H  0.42756583  0.83365040  0.63595800     0.14700
H640        H  0.38626363  0.88095681  0.60501287     0.28000
H641        H  0.38546057  0.88027959  0.63262288     0.28000
N642        N  0.37562895  0.08824974  0.37876835    -0.34800
N643        N  0.39290888  0.11426905  0.35944386    -0.55300
N644        N  0.37676995  0.13985251  0.37964539    -0.34800
N645        N  0.35791627  0.11389296  0.39751291    -0.55300
C646        C  0.38183928  0.07909064  0.36593763     0.28800
C647        C  0.36361800  0.07887883  0.38629424     0.28800
C648        C  0.38367800  0.14941320  0.36744300     0.28800
C649        C  0.36498949  0.14922479  0.38734642     0.28800
C650        C  0.40114063  0.10061009  0.35384729     0.37400
C651        C  0.40192577  0.12777822  0.35448139     0.37400
C652        C  0.35313897  0.10027077  0.40640707     0.37400
C653        C  0.35348174  0.12743844  0.40664823     0.37400
C654        C  0.37375429  0.06362089  0.36536624    -0.20100
C655        C  0.36226187  0.06348245  0.37823806    -0.20100
C656        C  0.37632641  0.16514603  0.36750751    -0.20100
C657        C  0.36451698  0.16502473  0.38006387    -0.20100
C658        C  0.41538113  0.10546173  0.34510124    -0.21100
C659        C  0.41587997  0.12269531  0.34551028    -0.21100
C660        C  0.34542785  0.10518055  0.42118529    -0.21100
C661        C  0.34562447  0.12241183  0.42132591    -0.21100
C662        C  0.39528878  0.08394091  0.35545763    -0.16500
C663        C  0.35456914  0.08354916  0.40077330    -0.16500
C664        C  0.35538709  0.14422739  0.40136429    -0.16500
C665        C  0.39702468  0.14459233  0.35689820    -0.16500
H666        H  0.37602764  0.05341640  0.35669523     0.16400
H667        H  0.35394921  0.05317563  0.38138599     0.16400
H668        H  0.37923955  0.17566247  0.35942344     0.16400
H669        H  0.35658899  0.17544386  0.38352798     0.16400
H670        H  0.42434352  0.09743634  0.33888227     0.14700
H671        H  0.42529380  0.13057833  0.33967352     0.14700
H672        H  0.34001738  0.09719646  0.43074704     0.14700
H673        H  0.34041892  0.13033028  0.43103029     0.14700
H674        H  0.38009724  0.09981836  0.38282170     0.28000
H675        H  0.38057671  0.12795899  0.38319940     0.28000
N676        N  0.16803355  0.87620497  0.37438335    -0.34800
N677        N  0.14341028  0.86014723  0.35213659    -0.55300
N678        N  0.11647529  0.87174072  0.37391363    -0.34800
N679        N  0.14094728  0.88963453  0.39483900    -0.55300
C680        C  0.17803655  0.87146688  0.36156147     0.28800
C681        C  0.17671047  0.88750172  0.38377083     0.28800
C682        C  0.10744965  0.86606005  0.36062792     0.28800
C683        C  0.10613445  0.88121238  0.38338527     0.28800
C684        C  0.15753399  0.85378817  0.34539578     0.37400
C685        C  0.13041674  0.85195288  0.34481335     0.37400
C686        C  0.15414869  0.89507227  0.40411132     0.37400
C687        C  0.12706013  0.89231759  0.40412313     0.37400
C688        C  0.19340390  0.87964715  0.36296443    -0.20100
C689        C  0.19255688  0.88977774  0.37694124    -0.20100
C690        C  0.09107446  0.87175787  0.36183763    -0.20100
C691        C  0.09024309  0.88129699  0.37618932    -0.20100
C692        C  0.15348328  0.84162644  0.33353584    -0.21100
C693        C  0.13629044  0.84049220  0.33314332    -0.21100
C694        C  0.14859253  0.90145898  0.41930223    -0.21100
C695        C  0.13143814  0.89969210  0.41931842    -0.21100
C696        C  0.17396168  0.85950090  0.34901876    -0.16500
C697        C  0.17100917  0.89531339  0.39866910    -0.16500
C698        C  0.11043092  0.88932066  0.39861905    -0.16500
C699        C  0.11333569  0.85536526  0.34779103    -0.16500
H700        H  0.20413266  0.87845571  0.35476294     0.16400
H701        H  0.20252520  0.89785223  0.38157421     0.16400
H702        H  0.08075962  0.86930055  0.35327611     0.16400
H703        H  0.07917361  0.88760681  0.38077257     0.16400
H704        H  0.16200759  0.83446940  0.32581330     0.14700
H705        H  0.12895696  0.83227554  0.32509379     0.14700
H706        H  0.15609285  0.90697386  0.42926649     0.14700
H707        H  0.12312409  0.90361528  0.42927692     0.14700
H708        H  0.15627223  0.87134573  0.37701993     0.28000
H709        H  0.12875221  0.86867542  0.37680248     0.28000
O710        O  0.70989039  0.01846759  0.26366515    -0.76700
C711        C  0.71446337  0.99178811  0.21569823     0.84400
O712        O  0.74750538  0.97163399  0.27243348    -0.77800
O713        O  0.76871960  0.98834321  0.21823409    -0.79300
O714        O  0.75858409  0.04437440  0.23666799    -0.79100
O715        O  0.72825103  0.03961678  0.26573379    -0.77700
Zn716      Zn  0.72231080  0.99974500  0.25227883     1.55700
O717        O  0.75753943  0.02789421  0.21396860    -0.79100
Cd718      Cd  0.74962121  0.02928336  0.25571457     1.59700
Cd719      Cd  0.76096985  0.99002977  0.25987748     1.59600
O720        O  0.76733077  0.02940919  0.27453086    -0.79100
O721        O  0.74543797  0.00585610  0.24788411    -1.89600
Cd722      Cd  0.74970796  0.00494213  0.22324304     1.59900
O723        O  0.77538187  0.00275376  0.27750618    -0.79000
O724        O  0.72883742  0.99627408  0.21039111    -0.77700
C725        C  0.73172573  0.96981299  0.27409625     0.84800
C726        C  0.71379805  0.03328674  0.26824259     0.84500
O727        O  0.71033958  0.99287443  0.23106904    -0.76600
C728        C  0.76091854  0.04183212  0.22107909     0.85300
O729        O  0.72123860  0.97973333  0.26739396    -0.76700
C730        C  0.77616344  0.01819011  0.28158405     0.85400
C731        C  0.77804523  0.97900968  0.22717233     0.85800
O732        O  0.77687401  0.97823138  0.24309486    -0.79200
O733        O  0.79529288  0.23927757  0.97697755    -0.76700
C734        C  0.79151305  0.27887511  0.01553858     0.84400
O735        O  0.75869881  0.21810923  0.02052759    -0.77800
O736        O  0.73744567  0.27397072  0.02102708    -0.79300
O737        O  0.74594808  0.27224946  0.96114645    -0.79100
O738        O  0.77622645  0.24276644  0.95671469    -0.77700
Zn739      Zn  0.78340263  0.24549323  0.99851260     1.55700
O740        O  0.74660673  0.28917158  0.98356078    -0.79100
Cd741      Cd  0.75511655  0.24969849  0.96998584     1.59700
Cd742      Cd  0.74470410  0.23485764  0.00669970     1.59600
O743        O  0.73704202  0.23165498  0.96509105    -0.79100
O744        O  0.75997177  0.25093156  0.99455501    -1.89600
Cd745      Cd  0.75560910  0.27418636  0.00269636     1.59900
O746        O  0.72979476  0.22127290  0.99008382    -0.79000
O747        O  0.77684440  0.28473541  0.01340903    -0.77700
C748        C  0.77451300  0.21649533  0.02185522     0.84800
C749        C  0.79087149  0.23870245  0.96160248     0.84500
O750        O  0.79571853  0.26444984  0.01019580    -0.76600
C751        C  0.74322161  0.28632689  0.96817852     0.85300
O752        O  0.78485234  0.22583593  0.01406533    -0.76700
C753        C  0.72846091  0.22168886  0.97415430     0.85400
C754        C  0.72824672  0.26264316  0.02752983     0.85800
O755        O  0.72919067  0.24725299  0.02337795    -0.79200
C756        C  0.28561240  0.27649344  0.78351685     0.82000
N757        N  0.27275155  0.28379109  0.79182264    -0.76300
C758        C  0.26582251  0.29806705  0.78579443     0.84500
N759        N  0.27179689  0.30510756  0.77151045    -0.76200
C760        C  0.28466426  0.29780310  0.76320128     0.84600
N761        N  0.29162290  0.28352279  0.76923371    -0.77900
C762        C  0.48436105  0.29091293  0.95713976     0.82000
N763        N  0.47688806  0.29663294  0.97129875    -0.76300
C764        C  0.46256321  0.28925401  0.97684414     0.84500
N765        N  0.45566150  0.27626914  0.96817317    -0.76200
C766        C  0.46314680  0.27058591  0.95402365     0.84600
N767        N  0.47746186  0.27792964  0.94846604    -0.77900
C768        C  0.45985451  0.45379060  0.76943135     0.82000
N769        N  0.47356562  0.44645514  0.77633217    -0.76300
C770        C  0.48100768  0.45336761  0.79008221     0.84500
N771        N  0.47468704  0.46758939  0.79696013    -0.76200
C772        C  0.46097864  0.47493302  0.79003362     0.84600
N773        N  0.45356107  0.46800267  0.77629668    -0.77900
C774        C  0.26916625  0.45638030  0.96782099     0.82000
N775        N  0.27728824  0.46967982  0.96095024    -0.76300
C776        C  0.29148616  0.47576159  0.96824177     0.84500
N777        N  0.29763449  0.46846539  0.98234258    -0.76200
C778        C  0.28947929  0.45516404  0.98920669     0.84600
N779        N  0.27529025  0.44907724  0.98191028    -0.77900
N780        N  0.37862113  0.58156601  0.87984522    -0.34800
N781        N  0.39440220  0.60770544  0.85986287    -0.55300
N782        N  0.37701684  0.63314272  0.87959141    -0.34800
N783        N  0.35960465  0.60702126  0.89811379    -0.55300
C784        C  0.38594296  0.57218637  0.86776024     0.28800
C785        C  0.36700846  0.57180091  0.88749198     0.28800
C786        C  0.38281906  0.64253475  0.86673617     0.28800
C787        C  0.36514371  0.64223174  0.88747417     0.28800
C788        C  0.40350364  0.59449595  0.85453889     0.37400
C789        C  0.40211137  0.62161678  0.85397224     0.37400
C790        C  0.35478949  0.59327091  0.90676342     0.37400
C791        C  0.35468541  0.62044429  0.90719741     0.37400
C792        C  0.37909388  0.55614257  0.86791842    -0.20100
C793        C  0.36713584  0.55590533  0.88033985    -0.20100
C794        C  0.37461987  0.65785017  0.86652093    -0.20100
C795        C  0.36348231  0.65767257  0.87965194    -0.20100
C796        C  0.41699007  0.60003453  0.84504394    -0.21100
C797        C  0.41609733  0.61723655  0.84467065    -0.21100
C798        C  0.34650186  0.59798171  0.92130327    -0.21100
C799        C  0.34649135  0.61521380  0.92160595    -0.21100
C800        C  0.39904991  0.57751949  0.85704522    -0.16500
C801        C  0.35689550  0.57656928  0.90124992    -0.16500
C802        C  0.35639809  0.63727874  0.90200732    -0.16500
C803        C  0.39601395  0.63808363  0.85588915    -0.16500
H804        H  0.38236937  0.54567424  0.85992250     0.16400
H805        H  0.35947093  0.54519765  0.88376763     0.16400
H806        H  0.37658365  0.66816239  0.85790825     0.16400
H807        H  0.35515764  0.66778718  0.88308528     0.16400
H808        H  0.42633689  0.59246662  0.83881933     0.14700
H809        H  0.42462941  0.62554629  0.83811788     0.14700
H810        H  0.34094122  0.58985694  0.93065839     0.14700
H811        H  0.34084737  0.62298874  0.93117778     0.14700
H812        H  0.38195946  0.59367975  0.88325675     0.28000
H813        H  0.38164471  0.62163759  0.88342845     0.28000
N814        N  0.59400335  0.37802462  0.87724678    -0.34800
N815        N  0.61956216  0.39495687  0.85743991    -0.55300
N816        N  0.64556011  0.38098279  0.87931000    -0.34800
N817        N  0.62011279  0.36230041  0.89769800    -0.55300
C818        C  0.58461446  0.38350006  0.86418833     0.28800
C819        C  0.58489764  0.36623816  0.88539201     0.28800
C820        C  0.65510865  0.38770828  0.86701945     0.28800
C821        C  0.65537580  0.37035909  0.88814828     0.28800
C822        C  0.60580336  0.40217173  0.85068631     0.37400
C823        C  0.63291928  0.40378765  0.85184248     0.37400
C824        C  0.60646443  0.35708082  0.90626066     0.37400
C825        C  0.63359998  0.35855429  0.90728170     0.37400
C826        C  0.56923130  0.37525504  0.86417422    -0.20100
C827        C  0.56941184  0.36435713  0.87753792    -0.20100
C828        C  0.67129455  0.38148344  0.86820893    -0.20100
C829        C  0.67146078  0.37052445  0.88152358    -0.20100
C830        C  0.61044421  0.41550531  0.84052860    -0.21100
C831        C  0.62763311  0.41653494  0.84126041    -0.21100
C832        C  0.61130630  0.34978407  0.92130656    -0.21100
C833        C  0.62851643  0.35070437  0.92194449    -0.21100
C834        C  0.58921659  0.39627858  0.85278706    -0.16500
C835        C  0.58983337  0.35771824  0.90014720    -0.16500
C836        C  0.65044226  0.36110509  0.90244931    -0.16500
C837        C  0.64984115  0.39986527  0.85526283    -0.16500
H838        H  0.55891032  0.37694848  0.85547357     0.16400
H839        H  0.55924240  0.35604902  0.88110086     0.16400
H840        H  0.68191268  0.38454879  0.86032980     0.16400
H841        H  0.68224097  0.36353662  0.88586582     0.16400
H842        H  0.60231385  0.42354583  0.83322936     0.14700
H843        H  0.63535848  0.42553670  0.83462332     0.14700
H844        H  0.60329597  0.34417389  0.93072562     0.14700
H845        H  0.63638963  0.34596677  0.93195549     0.14700
H846        H  0.60557868  0.38272201  0.88096684     0.28000
H847        H  0.63329642  0.38416753  0.88203869     0.28000
N848        N  0.36682723  0.38282846  0.65522081    -0.34800
N849        N  0.38830312  0.40052636  0.63135588    -0.55300
N850        N  0.36988437  0.38493470  0.60365532    -0.34800
N851        N  0.34993018  0.36556508  0.62755634    -0.55300
C852        C  0.37869388  0.38907007  0.66574288     0.28800
C853        C  0.35813453  0.37098545  0.66374234     0.28800
C854        C  0.38262108  0.39231438  0.59521157     0.28800
C855        C  0.36264351  0.37360776  0.59319508     0.28800
C856        C  0.39352867  0.40805450  0.64566982     0.37400
C857        C  0.39481573  0.40950441  0.61854922     0.37400
C858        C  0.34025566  0.36001693  0.64030882     0.37400
C859        C  0.34214362  0.36085167  0.61319737     0.37400
C860        C  0.37733491  0.38128312  0.68125607    -0.20100
C861        C  0.36435961  0.36990574  0.68000418    -0.20100
C862        C  0.38330914  0.38578615  0.57905771    -0.20100
C863        C  0.37071884  0.37397802  0.57779371    -0.20100
C864        C  0.40360963  0.42179015  0.64194983    -0.21100
C865        C  0.40440231  0.42272636  0.62475170    -0.21100
C866        C  0.32634732  0.35151755  0.63403415    -0.21100
C867        C  0.32754744  0.35203314  0.61684944    -0.21100
C868        C  0.39025199  0.40205762  0.66200431    -0.16500
C869        C  0.34435863  0.36156836  0.65749718    -0.16500
C870        C  0.34852160  0.36347936  0.59688976    -0.16500
C871        C  0.39318642  0.40524040  0.60141234    -0.16500
H872        H  0.38487355  0.38358168  0.69237109     0.16400
H873        H  0.36003169  0.36175010  0.68996038     0.16400
H874        H  0.39196955  0.38917973  0.56917528     0.16400
H875        H  0.36781590  0.36655093  0.56675295     0.16400
H876        H  0.40987971  0.43015289  0.65070907     0.14700
H877        H  0.41143269  0.43192873  0.61763851     0.14700
H878        H  0.31647830  0.34540985  0.64109644     0.14700
H879        H  0.31875966  0.34641684  0.60805984     0.14700
H880        H  0.36425827  0.38699285  0.64318777     0.28000
H881        H  0.36581894  0.38807552  0.61556996     0.28000
N882        N  0.37583438  0.36414811  0.09110508    -0.34800
N883        N  0.39876542  0.34966212  0.11557928    -0.55300
N884        N  0.38001133  0.36596759  0.14265735    -0.34800
N885        N  0.35860834  0.38219367  0.11806093    -0.55300
C886        C  0.38723018  0.35721822  0.08067050     0.28800
C887        C  0.36637980  0.37479297  0.08192122     0.28800
C888        C  0.39349623  0.36030422  0.15121944     0.28800
C889        C  0.37225464  0.37733113  0.15254170     0.28800
C890        C  0.40378573  0.34110626  0.10184008     0.37400
C891        C  0.40607092  0.34222275  0.12893551     0.37400
C892        C  0.34876437  0.38669902  0.10501248     0.37400
C893        C  0.35072442  0.38730392  0.13214388     0.37400
C894        C  0.38476076  0.36328615  0.06453366    -0.20100
C895        C  0.37164202  0.37438274  0.06532498    -0.20100
C896        C  0.39422671  0.36802554  0.16684779    -0.20100
C897        C  0.38081586  0.37876640  0.16768133    -0.20100
C898        C  0.41460009  0.32834017  0.10646154    -0.21100
C899        C  0.41603300  0.32903293  0.12363614    -0.21100
C900        C  0.33464114  0.39494533  0.11082715    -0.21100
C901        C  0.33586159  0.39528860  0.12801652    -0.21100
C902        C  0.39937641  0.34512959  0.08514116    -0.16500
C903        C  0.35278483  0.38443088  0.08790775    -0.16500
C904        C  0.35729528  0.38589547  0.14856457    -0.16500
C905        C  0.40457777  0.34768349  0.14573690    -0.16500
H906        H  0.39169057  0.36007349  0.05332786     0.16400
H907        H  0.36654163  0.38132176  0.05482746     0.16400
H908        H  0.40341369  0.36605227  0.17668602     0.16400
H909        H  0.37769583  0.38668310  0.17826298     0.16400
H910        H  0.42085356  0.31949405  0.09831202     0.14700
H911        H  0.42363692  0.32083921  0.13132330     0.14700
H912        H  0.32456810  0.40028300  0.10345009     0.14700
H913        H  0.32695048  0.40099152  0.13647813     0.14700
H914        H  0.37411498  0.36123098  0.10362031     0.28000
H915        H  0.37580558  0.36155281  0.13114653     0.28000
N916        N  0.37752625  0.16802780  0.86010855    -0.34800
N917        N  0.35924091  0.14233257  0.84151941    -0.55300
N918        N  0.38082866  0.11668065  0.85611855    -0.34800
N919        N  0.39764000  0.14224153  0.87635825    -0.55300
C920        C  0.36449625  0.17706148  0.85416928     0.28800
C921        C  0.38465434  0.17699734  0.87268767     0.28800
C922        C  0.36893646  0.10694031  0.84878717     0.28800
C923        C  0.38937244  0.10691326  0.86701727     0.28800
C924        C  0.35261360  0.15604138  0.83416952     0.37400
C925        C  0.35410977  0.12901450  0.83231791     0.37400
C926        C  0.40555812  0.15598160  0.88246660     0.37400
C927        C  0.40732899  0.12899143  0.88034577     0.37400
C928        C  0.36344316  0.19206774  0.86294925    -0.20100
C929        C  0.37616899  0.19202393  0.87465264    -0.20100
C930        C  0.37016279  0.09067405  0.85485341    -0.20100
C931        C  0.38306350  0.09065587  0.86634853    -0.20100
C932        C  0.34304890  0.15140849  0.82031683    -0.21100
C933        C  0.34396518  0.13425450  0.81916570    -0.21100
C934        C  0.42026733  0.15143102  0.89058985    -0.21100
C935        C  0.42137920  0.13430247  0.88926242    -0.21100
C936        C  0.35407190  0.17249912  0.84052717    -0.16500
C937        C  0.39910504  0.17239356  0.88182699    -0.16500
C938        C  0.40304705  0.11210347  0.87712362    -0.16500
C939        C  0.35741745  0.11214424  0.83635269    -0.16500
H940        H  0.35448061  0.20205028  0.86107493     0.16400
H941        H  0.37891536  0.20197560  0.88353397     0.16400
H942        H  0.36255943  0.07990840  0.85136837     0.16400
H943        H  0.38728803  0.07988164  0.87342161     0.16400
H944        H  0.33592580  0.15950407  0.81208026     0.14700
H945        H  0.33771755  0.12651164  0.80984041     0.14700
H946        H  0.42913860  0.15956567  0.89701087     0.14700
H947        H  0.43128332  0.12662330  0.89444185     0.14700
H948        H  0.38193032  0.15685355  0.85519122     0.28000
H949        H  0.38345907  0.12909116  0.85328300     0.28000
N950        N  0.15940093  0.38087947  0.87627743    -0.34800
N951        N  0.13424619  0.36218690  0.85713037    -0.55300
N952        N  0.10789284  0.37893349  0.87580850    -0.34800
N953        N  0.13302882  0.39601977  0.89637494    -0.55300
C954        C  0.16916551  0.36936975  0.86862932     0.28800
C955        C  0.16853539  0.38773499  0.88890447     0.28800
C956        C  0.09889112  0.36712154  0.86749138     0.28800
C957        C  0.09826354  0.38456391  0.88853347     0.28800
C958        C  0.14805948  0.35789339  0.84841448     0.37400
C959        C  0.12091906  0.35743585  0.84771085     0.37400
C960        C  0.14624804  0.40509293  0.90205202     0.37400
C961        C  0.11911832  0.40366760  0.90214033     0.37400
C962        C  0.18480436  0.36907102  0.87635123    -0.20100
C963        C  0.18441740  0.38068642  0.88913029    -0.20100
C964        C  0.08325943  0.36532676  0.87490684    -0.20100
C965        C  0.08287154  0.37632895  0.88821535    -0.20100
C966        C  0.14350787  0.35015694  0.83344625    -0.21100
C967        C  0.12627676  0.34990660  0.83297898    -0.21100
C968        C  0.14073466  0.41847096  0.91167596    -0.21100
C969        C  0.12351529  0.41755711  0.91174611    -0.21100
C970        C  0.16464222  0.35977566  0.85436972    -0.16500
C971        C  0.16318532  0.40069881  0.89970343    -0.16500
C972        C  0.10260912  0.39763466  0.89973288    -0.16500
C973        C  0.10407233  0.35861568  0.85288049    -0.16500
H974        H  0.19544061  0.36136603  0.87305782     0.16400
H975        H  0.19468548  0.38362172  0.89760012     0.16400
H976        H  0.07313947  0.35703028  0.87106625     0.16400
H977        H  0.07238098  0.37817435  0.89659604     0.16400
H978        H  0.15173445  0.34505375  0.82396149     0.14700
H979        H  0.11858559  0.34452108  0.82308955     0.14700
H980        H  0.14832738  0.42776276  0.91816144     0.14700
H981        H  0.11520117  0.42603004  0.91826734     0.14700
H982        H  0.14750766  0.38453520  0.87252312     0.28000
H983        H  0.11952163  0.38363756  0.87233093     0.28000
C984        C  0.70684542  0.73859466  0.20200859     0.82000
N985        N  0.72059006  0.73120123  0.19537536    -0.76300
C986        C  0.72681144  0.71705399  0.20241677     0.84500
N987        N  0.71919401  0.71019246  0.21600073    -0.76200
C988        C  0.70543473  0.71759777  0.22263841     0.84600
N989        N  0.69921191  0.73175190  0.21558908    -0.77900
N990        N  0.61655512  0.63119831  0.32876607    -0.34800
N991        N  0.60030929  0.61174441  0.35525585    -0.55300
N992        N  0.61821493  0.63146513  0.38041454    -0.34800
N993        N  0.63600186  0.64941346  0.35393436    -0.55300
C994        C  0.60960969  0.61855718  0.31971316     0.28800
C995        C  0.62832756  0.63859155  0.31901939     0.28800
C996        C  0.61134778  0.61945364  0.39022172     0.28800
C997        C  0.63037785  0.63914057  0.38952315     0.28800
C998        C  0.59155901  0.60588845  0.34191492     0.37400
C999        C  0.59224509  0.60621863  0.36907902     0.37400
C1000       C  0.64072858  0.65811414  0.34019943     0.37400
C1001       C  0.64170812  0.65813560  0.36735119     0.37400
C1002       C  0.61688632  0.61807236  0.30391584    -0.20100
C1003       C  0.62868867  0.63072326  0.30347707    -0.20100
C1004       C  0.61905455  0.61967840  0.40587917    -0.20100
C1005       C  0.63107653  0.63209261  0.40543371    -0.20100
C1006       C  0.57796334  0.59638785  0.34727208    -0.21100
C1007       C  0.57839740  0.59660126  0.36450751    -0.21100
C1008       C  0.64965442  0.67237181  0.34489373    -0.21100
C1009       C  0.65029146  0.67237567  0.36211901    -0.21100
C1010       C  0.59642150  0.60792016  0.32503889    -0.16500
C1011       C  0.63826534  0.65264150  0.32352601    -0.16500
C1012       C  0.64034126  0.65279700  0.38415907    -0.16500
C1013       C  0.59785631  0.60880143  0.38570469    -0.16500
H1014       H  0.61398247  0.60950744  0.29373284     0.16400
H1015       H  0.63662948  0.63377744  0.29290533     0.16400
H1016       H  0.61629531  0.61174320  0.41654572     0.16400
H1017       H  0.63934136  0.63556863  0.41570144     0.16400
H1018       H  0.56883333  0.58979582  0.33957303     0.14700
H1019       H  0.56966183  0.59022071  0.37272160     0.14700
H1020       H  0.65536100  0.68163846  0.33676107     0.14700
H1021       H  0.65655409  0.68166932  0.36988866     0.14700
H1022       H  0.61283989  0.63511760  0.34059182     0.28000
H1023       H  0.61424053  0.63481856  0.36850103     0.28000
C1024       C  0.73252170  0.52905934  0.03935013     0.82000
N1025       N  0.72530601  0.53663002  0.02591771    -0.76300
C1026       C  0.71118241  0.53003918  0.01892220     0.84500
N1027       N  0.70419041  0.51593560  0.02544455    -0.76200
C1028       C  0.71139445  0.50835752  0.03888371     0.84600
N1029       N  0.72552492  0.51495918  0.04589162    -0.77900
C1030       C  0.51998097  0.71517911  0.03149114     0.82000
N1031       N  0.52767878  0.70735333  0.01853622    -0.76300
C1032       C  0.54131458  0.71447470  0.01125446     0.84500
N1033       N  0.54735873  0.72936954  0.01701758    -0.76200
C1034       C  0.53963912  0.73720850  0.02997906     0.84600
N1035       N  0.52599893  0.73007114  0.03727242    -0.77900
C1036       C  0.54723616  0.51352753  0.20093511     0.82000
N1037       N  0.55228479  0.52141057  0.21521248    -0.76300
C1038       C  0.54458698  0.53570767  0.22016750     0.84500
N1039       N  0.53191017  0.54214066  0.21084081    -0.76200
C1040       C  0.52688785  0.53426077  0.19656503     0.84600
N1041       N  0.53453955  0.51994898  0.19159580    -0.77900
N1042       N  0.41747763  0.62517230  0.11914301    -0.34800
N1043       N  0.39063161  0.64473239  0.10381470    -0.55300
N1044       N  0.36608450  0.62590624  0.12323160    -0.34800
N1045       N  0.39268183  0.60488698  0.13683725    -0.55300
C1046       C  0.42612812  0.63332954  0.10704394     0.28800
C1047       C  0.42723044  0.61249465  0.12469431     0.28800
C1048       C  0.35588091  0.63441878  0.11271362     0.28800
C1049       C  0.35695931  0.61321360  0.12984786     0.28800
C1050       C  0.40395542  0.65340793  0.09791988     0.37400
C1051       C  0.37692933  0.65403493  0.10041232     0.37400
C1052       C  0.40673971  0.59862298  0.14388328     0.37400
C1053       C  0.37966240  0.59886749  0.14584315     0.37400
C1054       C  0.44170979  0.62590836  0.10507859    -0.20100
C1055       C  0.44241020  0.61277578  0.11622163    -0.20100
C1056       C  0.34000435  0.62717138  0.11279517    -0.20100
C1057       C  0.34068869  0.61377438  0.12359800    -0.20100
C1058       C  0.39866781  0.66819727  0.09048197    -0.21100
C1059       C  0.38152778  0.66860618  0.09208868    -0.21100
C1060       C  0.40262570  0.58836532  0.15732482    -0.21100
C1061       C  0.38544329  0.58851818  0.15856318    -0.21100
C1062       C  0.42067448  0.64769273  0.09823733    -0.16500
C1063       C  0.42309912  0.60109885  0.13762524    -0.16500
C1064       C  0.36262568  0.60172141  0.14203873    -0.16500
C1065       C  0.36027228  0.64898503  0.10365949    -0.16500
H1066       H  0.45158511  0.62958530  0.09652366     0.16400
H1067       H  0.45291938  0.60439007  0.11788485     0.16400
H1068       H  0.32903728  0.63114478  0.10583075     0.16400
H1069       H  0.33033966  0.60545365  0.12658127     0.16400
H1070       H  0.40633578  0.67762976  0.08439502     0.14700
H1071       H  0.37337095  0.67838453  0.08744792     0.14700
H1072       H  0.41109644  0.58133803  0.16526697     0.14700
H1073       H  0.37804961  0.58164058  0.16764529     0.14700
H1074       H  0.40593037  0.62857990  0.12393535     0.28000
H1075       H  0.37827455  0.62918189  0.12647677     0.28000
N1076       N  0.62937896  0.39897482  0.12566693    -0.34800
N1077       N  0.64694055  0.37325849  0.10657030    -0.55300
N1078       N  0.63207416  0.34753173  0.12784357    -0.34800
N1079       N  0.61283436  0.37313107  0.14550281    -0.55300
C1080       C  0.63530394  0.40822003  0.11273760     0.28800
C1081       C  0.61742652  0.40813516  0.13337983     0.28800
C1082       C  0.63893533  0.33790915  0.11570601     0.28800
C1083       C  0.62085001  0.33786148  0.13611925     0.28800
C1084       C  0.65433495  0.38701173  0.09995037     0.37400
C1085       C  0.65578615  0.35991301  0.10115310     0.37400
C1086       C  0.60754127  0.38677973  0.15398563     0.37400
C1087       C  0.60879686  0.35968217  0.15496766     0.37400
C1088       C  0.62715623  0.42355300  0.11234806    -0.20100
C1089       C  0.61587446  0.42349969  0.12536631    -0.20100
C1090       C  0.63218970  0.32183931  0.11645274    -0.20100
C1091       C  0.62076162  0.32181234  0.12932022    -0.20100
C1092       C  0.66783388  0.38236974  0.09006928    -0.21100
C1093       C  0.66874970  0.36518622  0.09082777    -0.21100
C1094       C  0.59989712  0.38197991  0.16884666    -0.21100
C1095       C  0.60068227  0.36477946  0.16946422    -0.21100
C1096       C  0.64842396  0.40356520  0.10182455    -0.16500
C1097       C  0.60850065  0.40336630  0.14792546    -0.16500
C1098       C  0.61128220  0.34286042  0.15012117    -0.16500
C1099       C  0.65157339  0.34301278  0.10441807    -0.16500
H1100       H  0.62917946  0.43376629  0.10363324     0.16400
H1101       H  0.60754143  0.43367025  0.12860605     0.16400
H1102       H  0.63518411  0.31121655  0.10854821     0.16400
H1103       H  0.61327785  0.31115140  0.13324863     0.16400
H1104       H  0.67602745  0.39048837  0.08288438     0.14700
H1105       H  0.67777514  0.35745302  0.08433568     0.14700
H1106       H  0.59415489  0.39000747  0.17814570     0.14700
H1107       H  0.59567368  0.35691918  0.17934098     0.14700
H1108       H  0.63392605  0.38748373  0.12959982     0.28000
H1109       H  0.63549862  0.35972625  0.13089093     0.28000
N1110       N  0.62718189  0.61849612  0.91131595    -0.34800
N1111       N  0.64413273  0.59890460  0.88559561    -0.55300
N1112       N  0.62632855  0.61782261  0.85955420    -0.34800
N1113       N  0.60769760  0.63569509  0.88529355    -0.55300
C1114       C  0.63490628  0.60699025  0.92108810     0.28800
C1115       C  0.61583391  0.62653109  0.92095286     0.28800
C1116       C  0.63367793  0.60586520  0.85010688     0.28800
C1117       C  0.61442591  0.62516565  0.84994569     0.28800
C1118       C  0.65270476  0.59342407  0.89917335     0.37400
C1119       C  0.65235558  0.59319153  0.87195827     0.37400
C1120       C  0.60240599  0.64437103  0.89883700     0.37400
C1121       C  0.60182644  0.64385413  0.87163808     0.37400
C1122       C  0.62855331  0.60792266  0.93726394    -0.20100
C1123       C  0.61654650  0.62024953  0.93718119    -0.20100
C1124       C  0.62654489  0.60579929  0.83416881    -0.20100
C1125       C  0.61440753  0.61797144  0.83407163    -0.20100
C1126       C  0.66632874  0.58393870  0.89413383    -0.21100
C1127       C  0.66612167  0.58381168  0.87689029    -0.21100
C1128       C  0.59287065  0.65797471  0.89375279    -0.21100
C1129       C  0.59250038  0.65764052  0.87653147    -0.21100
C1130       C  0.64795567  0.59613738  0.91603262    -0.16500
C1131       C  0.60533032  0.63980364  0.91573072    -0.16500
C1132       C  0.60402055  0.63858321  0.85485712    -0.16500
C1133       C  0.64711289  0.59551565  0.85516450    -0.16500
H1134       H  0.63221248  0.60053039  0.94804890     0.16400
H1135       H  0.60919057  0.62414706  0.94788238     0.16400
H1136       H  0.62975200  0.59781818  0.82366301     0.16400
H1137       H  0.60648248  0.62116138  0.82349207     0.16400
H1138       H  0.67541389  0.57768235  0.90204756     0.14700
H1139       H  0.67499525  0.57740673  0.86890665     0.14700
H1140       H  0.58672045  0.66713843  0.90162313     0.14700
H1141       H  0.58601444  0.66648032  0.86854145     0.14700
H1142       H  0.63003417  0.62129270  0.89898953     0.28000
H1143       H  0.62985534  0.62132825  0.87157330     0.28000
N1144       N  0.83451477  0.62562846  0.12134153    -0.34800
N1145       N  0.85881961  0.64789991  0.13786482    -0.55300
N1146       N  0.88616387  0.62873953  0.12312916    -0.34800
N1147       N  0.86186380  0.60796592  0.10476187    -0.55300
C1148       C  0.82407863  0.63747292  0.12743144     0.28800
C1149       C  0.82568608  0.61624711  0.11018365     0.28800
C1150       C  0.89491450  0.64163217  0.13001094     0.28800
C1151       C  0.89652309  0.62072959  0.11241339     0.28800
C1152       C  0.84465506  0.65369642  0.14502631     0.37400
C1153       C  0.87178986  0.65515989  0.14615699     0.37400
C1154       C  0.84893527  0.59818416  0.09956608     0.37400
C1155       C  0.87608275  0.59996660  0.10034399     0.37400
C1156       C  0.80829188  0.63539836  0.12027015    -0.20100
C1157       C  0.80930260  0.62201804  0.10940372    -0.20100
C1158       C  0.91116352  0.64163972  0.12381172    -0.20100
C1159       C  0.91217343  0.62847578  0.11270282    -0.20100
C1160       C  0.84864802  0.66492737  0.15778579    -0.21100
C1161       C  0.86583569  0.66583819  0.15851263    -0.21100
C1162       C  0.85497421  0.58399182  0.09156247    -0.21100
C1163       C  0.87216889  0.58512604  0.09204731    -0.21100
C1164       C  0.82817772  0.64971738  0.13968640    -0.16500
C1165       C  0.83178363  0.60227439  0.10113155    -0.16500
C1166       C  0.89251745  0.60624648  0.10289696    -0.16500
C1167       C  0.88888969  0.65302702  0.14215886    -0.16500
H1168       H  0.79716837  0.64275270  0.12262637     0.16400
H1169       H  0.79910683  0.61711180  0.10179078     0.16400
H1170       H  0.92126562  0.65024713  0.12694528     0.16400
H1171       H  0.92321606  0.62499857  0.10566615     0.16400
H1172       H  0.84008003  0.67184600  0.16567511     0.14700
H1173       H  0.87310376  0.67360581  0.16705048     0.14700
H1174       H  0.84775242  0.57393291  0.08584816     0.14700
H1175       H  0.88079491  0.57610787  0.08678970     0.14700
H1176       H  0.84673556  0.62357117  0.12516575     0.28000
H1177       H  0.87408644  0.62511019  0.12619285     0.28000
N1178       N  0.61998955  0.84685766  0.11851610    -0.34800
N1179       N  0.63615237  0.87246116  0.13951446    -0.55300
N1180       N  0.61806116  0.89841352  0.12117053    -0.34800
N1181       N  0.60016985  0.87269754  0.10182638    -0.55300
C1182       C  0.62756607  0.83704235  0.13008627     0.28800
C1183       C  0.60879114  0.83717427  0.11006152     0.28800
C1184       C  0.62526747  0.90778045  0.13343211     0.28800
C1185       C  0.60608230  0.90787818  0.11382641     0.28800
C1186       C  0.64497644  0.85895210  0.14458714     0.37400
C1187       C  0.64421193  0.88610478  0.14572157     0.37400
C1188       C  0.59561422  0.85936250  0.09230491     0.37400
C1189       C  0.59442119  0.88649125  0.09386580     0.37400
C1190       C  0.62124825  0.82081773  0.12882455    -0.20100
C1191       C  0.60941705  0.82089956  0.11619297    -0.20100
C1192       C  0.61790168  0.92350811  0.13377130    -0.20100
C1193       C  0.60578476  0.92356318  0.12142436    -0.20100
C1194       C  0.65853820  0.86401950  0.15436397    -0.21100
C1195       C  0.65806593  0.88121919  0.15506547    -0.21100
C1196       C  0.58667077  0.86469196  0.07834368    -0.21100
C1197       C  0.58590500  0.88187376  0.07933956    -0.21100
C1198       C  0.64058900  0.84208852  0.14115520    -0.16500
C1199       C  0.59860684  0.84241463  0.09647561    -0.16500
C1200       C  0.59608250  0.90311762  0.09988073    -0.16500
C1201       C  0.63884885  0.90284950  0.14373424    -0.16500
H1202       H  0.62484881  0.81000114  0.13617709     0.16400
H1203       H  0.60215774  0.81016164  0.11196356     0.16400
H1204       H  0.62099297  0.93391224  0.14199905     0.16400
H1205       H  0.59777474  0.93403516  0.11830425     0.16400
H1206       H  0.66778769  0.85615141  0.16040341     0.14700
H1207       H  0.66686651  0.88919841  0.16177175     0.14700
H1208       H  0.58116847  0.85700324  0.06852220     0.14700
H1209       H  0.57971929  0.89002160  0.07042384     0.14700
H1210       H  0.62296585  0.85922145  0.11589793     0.28000
H1211       H  0.62179348  0.88660424  0.11737648     0.28000
O1212       O  0.73805536  0.48923106  0.70808420    -0.76700
C1213       C  0.76975170  0.53345798  0.71436589     0.84400
O1214       O  0.78156121  0.47196302  0.74632521    -0.77800
O1215       O  0.77509648  0.52828607  0.76805522    -0.79300
O1216       O  0.71582522  0.51810040  0.75660595    -0.79100
O1217       O  0.71680477  0.48899151  0.72618764    -0.77700
Zn1218     Zn  0.75806829  0.49768583  0.72127211     1.55700
O1219       O  0.73568601  0.53793561  0.75843271    -0.79100
Cd1220     Cd  0.72820522  0.49730294  0.74790893     1.59700
Cd1221     Cd  0.76608968  0.48754650  0.76006413     1.59600
O1222       O  0.72492877  0.47904152  0.76576380    -0.79100
O1223       O  0.75250993  0.50207587  0.74451601    -1.89600
Cd1224     Cd  0.75697697  0.52620445  0.74967639     1.59900
O1225       O  0.75065121  0.47269705  0.77493415    -0.79000
O1226       O  0.76604391  0.53880961  0.72893355    -0.77700
C1227       C  0.78368290  0.47094299  0.73052810     0.84800
C1228       C  0.72275955  0.48636659  0.71164791     0.84500
O1229       O  0.76734522  0.51829097  0.70992961    -0.76600
C1230       C  0.72065173  0.53285958  0.76040035     0.85300
O1231       O  0.77566929  0.47997181  0.72012504    -0.76700
C1232       C  0.73476029  0.47091317  0.77531275     0.85400
C1233       C  0.78331448  0.51786742  0.77688155     0.85800
O1234       O  0.78134319  0.50204736  0.77558946    -0.79200
O1235       O  0.96788420  0.00422517  0.48218832    -0.76700
C1236       C  0.96921950  0.96300820  0.51788960     0.84400
O1237       O  0.00361361  0.02326207  0.52727269    -0.77800
O1238       O  0.02295057  0.96531919  0.52539708    -0.79300
O1239       O  0.01602403  0.97112198  0.46550229    -0.79100
O1240       O  0.98733475  0.00215724  0.46224882    -0.77700
Zn1241     Zn  0.97896523  0.99701062  0.50364190     1.55700
O1242       O  0.01451962  0.95285004  0.48667161    -0.79100
Cd1243     Cd  0.00770356  0.99342595  0.47573114     1.59700
Cd1244     Cd  0.01745839  0.00570137  0.51401133     1.59600
O1245       O  0.02688266  0.01058782  0.47283276    -0.79100
O1246       O  0.00220957  0.99095780  0.50004549    -1.89600
Cd1247     Cd  0.00550654  0.96702290  0.50641848     1.59900
O1248       O  0.03414436  0.01865734  0.49878012    -0.79000
O1249       O  0.98359010  0.95662545  0.51542930    -0.77700
C1250       C  0.98782728  0.02558780  0.52770240     0.84800
C1251       C  0.97263782  0.00595967  0.46707182     0.84500
O1252       O  0.96577688  0.97805181  0.51392184    -0.76600
C1253       C  0.01817851  0.95653032  0.47157887     0.85300
O1254       O  0.97752902  0.01655263  0.51940527    -0.76700
C1255       C  0.03595003  0.01915113  0.48290304     0.85400
C1256       C  0.03186471  0.97579755  0.53360416     0.85800
O1257       O  0.03130703  0.99155811  0.53101265    -0.79200
C1258       C  0.53855773  0.03638941  0.72817151     0.82000
N1259       N  0.52398211  0.04271249  0.72208283    -0.76300
C1260       C  0.51621490  0.03520923  0.70883319     0.84500
N1261       N  0.52311129  0.02148031  0.70156475    -0.76200
C1262       C  0.53768804  0.01515622  0.70764597     0.84600
N1263       N  0.54544464  0.02265734  0.72090235    -0.77900
C1264       C  0.73665972  0.03337141  0.54374947     0.82000
N1265       N  0.73016811  0.01979098  0.55170064    -0.76300
C1266       C  0.71592912  0.01246373  0.54579382     0.84500
N1267       N  0.70815592  0.01870124  0.53201635    -0.76200
C1268       C  0.71463890  0.03226300  0.52406825     0.84600
N1269       N  0.72888076  0.03965503  0.52994832    -0.77900
C1270       C  0.53737928  0.23170073  0.54141057     0.82000
N1271       N  0.52352488  0.22663711  0.54991174    -0.76300
C1272       C  0.51577291  0.21201720  0.54567922     0.84500
N1273       N  0.52194940  0.20240744  0.53310124    -0.76200
C1274       C  0.53579551  0.20747697  0.52464186     0.84600
N1275       N  0.54354741  0.22209216  0.52882446    -0.77900
N1276       N  0.61419269  0.10827010  0.42184434    -0.34800
N1277       N  0.59618751  0.12778908  0.39646657    -0.55300
N1278       N  0.61445080  0.11048094  0.37020671    -0.34800
N1279       N  0.63387074  0.09255958  0.39551307    -0.55300
C1280       C  0.60655684  0.11971588  0.43172249     0.28800
C1281       C  0.62624413  0.10081534  0.43119200     0.28800
C1282       C  0.60693670  0.12272348  0.36124627     0.28800
C1283       C  0.62717961  0.10455997  0.36078605     0.28800
C1284       C  0.58761178  0.13257144  0.41022966     0.37400
C1285       C  0.58736969  0.13325884  0.38304640     0.37400
C1286       C  0.63958899  0.08364517  0.40871457     0.37400
C1287       C  0.63990101  0.08505879  0.38160411     0.37400
C1288       C  0.61360792  0.11926533  0.44768555    -0.20100
C1289       C  0.62600253  0.10733426  0.44735290    -0.20100
C1290       C  0.61485265  0.12446972  0.34585754    -0.20100
C1291       C  0.62764955  0.11301494  0.34557526    -0.20100
C1292       C  0.57336279  0.14135173  0.40553064    -0.21100
C1293       C  0.57318412  0.14173573  0.38828506    -0.21100
C1294       C  0.64946713  0.07048922  0.40316661    -0.21100
C1295       C  0.64965516  0.07138343  0.38596663    -0.21100
C1296       C  0.59305293  0.13014700  0.42694013    -0.16500
C1297       C  0.63716314  0.08801853  0.42568909    -0.16500
C1298       C  0.63783997  0.09119653  0.36515938    -0.16500
C1299       C  0.59267360  0.13180894  0.36624241    -0.16500
H1300       H  0.61019491  0.12675856  0.45848118     0.16400
H1301       H  0.63397222  0.10390863  0.45782198     0.16400
H1302       H  0.61172750  0.13309003  0.33584961     0.16400
H1303       H  0.63627024  0.11108347  0.33529132     0.16400
H1304       H  0.56415056  0.14703250  0.41367858     0.14700
H1305       H  0.56386693  0.14782517  0.38051200     0.14700
H1306       H  0.65607800  0.06137005  0.41072435     0.14700
H1307       H  0.65644690  0.06311204  0.37764980     0.14700
H1308       H  0.61089945  0.10525090  0.40961821     0.28000
H1309       H  0.61049041  0.10575894  0.38165647     0.28000
N1310       N  0.40804991  0.12387608  0.62844633    -0.34800
N1311       N  0.38286729  0.14545632  0.61305014    -0.55300
N1312       N  0.35649941  0.12362794  0.62607474    -0.34800
N1313       N  0.38160858  0.10337035  0.64328525    -0.55300
C1314       C  0.41789509  0.13660647  0.62300665     0.28800
C1315       C  0.41722768  0.11466859  0.63932953     0.28800
C1316       C  0.34734102  0.13679710  0.62068397     0.28800
C1317       C  0.34665362  0.11451886  0.63644508     0.28800
C1318       C  0.39671895  0.15175698  0.60560851     0.37400
C1319       C  0.36959015  0.15182295  0.60468930     0.37400
C1320       C  0.39502455  0.09415162  0.64788548     0.37400
C1321       C  0.36787046  0.09387531  0.64635694     0.37400
C1322       C  0.43366344  0.13535372  0.63033487    -0.20100
C1323       C  0.43323854  0.12153214  0.64065129    -0.20100
C1324       C  0.33138684  0.13594962  0.62754904    -0.20100
C1325       C  0.33094859  0.12187655  0.63749886    -0.20100
C1326       C  0.39221716  0.16240262  0.59260419    -0.21100
C1327       C  0.37500476  0.16244722  0.59202720    -0.21100
C1328       C  0.38977220  0.07877380  0.65414548    -0.21100
C1329       C  0.37255495  0.07858454  0.65314377    -0.21100
C1330       C  0.41332517  0.14874830  0.61094209    -0.16500
C1331       C  0.41184816  0.09980036  0.64742296    -0.16500
C1332       C  0.35117333  0.09931825  0.64427297    -0.16500
C1333       C  0.35268652  0.14897908  0.60901426    -0.16500
H1334       H  0.44440735  0.14348328  0.62837210     0.16400
H1335       H  0.44361210  0.11697965  0.64814621     0.16400
H1336       H  0.32108627  0.14451093  0.62550723     0.16400
H1337       H  0.32024444  0.11751665  0.64462762     0.16400
H1338       H  0.40046288  0.16949165  0.58446152     0.14700
H1339       H  0.36735851  0.16958010  0.58337167     0.14700
H1340       H  0.39752356  0.06879499  0.65904855     0.14700
H1341       H  0.36441413  0.06845862  0.65718038     0.14700
H1342       H  0.39605690  0.12111581  0.62423778     0.28000
H1343       H  0.36843096  0.12046243  0.62209704     0.28000
C1344       C  0.71187991  0.21127790  0.71357160     0.82000
N1345       N  0.72648211  0.20536517  0.70725527    -0.76300
C1346       C  0.73382390  0.21314812  0.69402748     0.84500
N1347       N  0.72653118  0.22682477  0.68705953    -0.76200
C1348       C  0.71192586  0.23276116  0.69337738     0.84600
N1349       N  0.70458967  0.22497921  0.70662993    -0.77900
N1350       N  0.63090282  0.34441026  0.60948983    -0.34800
N1351       N  0.64889010  0.37024952  0.62843666    -0.55300
N1352       N  0.63135863  0.39609029  0.60938797    -0.34800
N1353       N  0.61183969  0.37024522  0.59197678    -0.55300
C1354       C  0.63831567  0.33495187  0.62146067     0.28800
C1355       C  0.61869754  0.33494968  0.60228697     0.28800
C1356       C  0.63874454  0.40552587  0.62147821     0.28800
C1357       C  0.61926157  0.40552510  0.60223141     0.28800
C1358       C  0.65740141  0.35667174  0.63384242     0.37400
C1359       C  0.65757836  0.38385290  0.63380229     0.37400
C1360       C  0.60589351  0.35664617  0.58368555     0.37400
C1361       C  0.60622028  0.38382265  0.58359302     0.37400
C1362       C  0.63090108  0.31915297  0.62167997    -0.20100
C1363       C  0.61853744  0.31914919  0.60959991    -0.20100
C1364       C  0.63141263  0.42127428  0.62184360    -0.20100
C1365       C  0.61912791  0.42127777  0.60969577    -0.20100
C1366       C  0.67148835  0.36166768  0.64287426    -0.21100
C1367       C  0.67160051  0.37890358  0.64285029    -0.21100
C1368       C  0.59623387  0.36160134  0.57006447    -0.21100
C1369       C  0.59644912  0.37883591  0.56999906    -0.21100
C1370       C  0.65200530  0.33989415  0.63172949    -0.16500
C1371       C  0.60811400  0.33988646  0.58889934    -0.16500
C1372       C  0.60877726  0.40060154  0.58874177    -0.16500
C1373       C  0.65236282  0.40061340  0.63170480    -0.16500
H1374       H  0.63406568  0.30868386  0.62970490     0.16400
H1375       H  0.61036390  0.30867073  0.60655987     0.16400
H1376       H  0.63459389  0.43170973  0.62999597     0.16400
H1377       H  0.61102054  0.43171295  0.60671033     0.16400
H1378       H  0.68060117  0.35373095  0.64902978     0.14700
H1379       H  0.68081292  0.38687273  0.64899148     0.14700
H1380       H  0.58954879  0.35363987  0.56123626     0.14700
H1381       H  0.58994721  0.38677781  0.56111984     0.14700
H1382       H  0.63454233  0.35639449  0.60584935     0.28000
H1383       H  0.63497305  0.38415971  0.60562250     0.28000
N1384       N  0.62428788  0.90595434  0.62381863    -0.34800
N1385       N  0.64116833  0.87906130  0.60522820    -0.55300
N1386       N  0.62266598  0.85430060  0.62438896    -0.34800
N1387       N  0.60767027  0.88115547  0.64463973    -0.55300
C1388       C  0.63633620  0.91491993  0.61592978     0.28800
C1389       C  0.61728564  0.91609011  0.63545546     0.28800
C1390       C  0.63285005  0.84412422  0.61548445     0.28800
C1391       C  0.61627771  0.84517978  0.63716224     0.28800
C1392       C  0.64743694  0.89244675  0.59696857     0.37400
C1393       C  0.64529388  0.86536624  0.59616520     0.37400
C1394       C  0.59969330  0.89493217  0.65038122     0.37400
C1395       C  0.60002652  0.86777483  0.65171717     0.37400
C1396       C  0.63679239  0.93109239  0.62247635    -0.20100
C1397       C  0.62470195  0.93185065  0.63471000    -0.20100
C1398       C  0.63269473  0.82821236  0.62249984    -0.20100
C1399       C  0.62229231  0.82888678  0.63620583    -0.20100
C1400       C  0.65585300  0.88722326  0.58268413    -0.21100
C1401       C  0.65441620  0.87006238  0.58212527    -0.21100
C1402       C  0.58710296  0.89030153  0.66143463    -0.21100
C1403       C  0.58736221  0.87310676  0.66234253    -0.21100
C1404       C  0.64647332  0.90921663  0.60256313    -0.16500
C1405       C  0.60413962  0.91164857  0.64645924    -0.16500
C1406       C  0.60458870  0.85084638  0.64918783    -0.16500
C1407       C  0.64193598  0.84864998  0.60097185    -0.16500
H1408       H  0.64492386  0.94135366  0.61877300     0.16400
H1409       H  0.62181984  0.94272946  0.64230387     0.16400
H1410       H  0.63944139  0.81726055  0.61824562     0.16400
H1411       H  0.61942981  0.81850643  0.64448105     0.16400
H1412       H  0.66240417  0.89496086  0.57364514     0.14700
H1413       H  0.65973613  0.86196552  0.57263281     0.14700
H1414       H  0.57872036  0.89845504  0.66827024     0.14700
H1415       H  0.57912962  0.86541476  0.66993684     0.14700
H1416       H  0.62052446  0.89385989  0.62090527     0.28000
H1417       H  0.61958993  0.86652383  0.62144115     0.28000
N1418       N  0.84625193  0.12922304  0.61524336    -0.34800
N1419       N  0.87202087  0.14861474  0.63309794    -0.55300
N1420       N  0.89795946  0.13110228  0.61416935    -0.34800
N1421       N  0.87227887  0.11022511  0.59801200    -0.55300
C1422       C  0.83654188  0.13757201  0.62632211     0.28800
C1423       C  0.83670832  0.11698694  0.60817865     0.28800
C1424       C  0.90749206  0.13917786  0.62575566     0.28800
C1425       C  0.90763606  0.11913925  0.60712582     0.28800
C1426       C  0.85834117  0.15689522  0.63856357     0.37400
C1427       C  0.88553858  0.15753781  0.63833132     0.37400
C1428       C  0.85868860  0.10330903  0.59046187     0.37400
C1429       C  0.88585080  0.10451354  0.58971815     0.37400
C1430       C  0.82047591  0.13073757  0.62607353    -0.20100
C1431       C  0.82058684  0.11776189  0.61466610    -0.20100
C1432       C  0.92352179  0.13246133  0.62583924    -0.20100
C1433       C  0.92361437  0.11984106  0.61408585    -0.20100
C1434       C  0.86321399  0.17104544  0.64756206    -0.21100
C1435       C  0.88044307  0.17144535  0.64741793    -0.21100
C1436       C  0.86367422  0.09295065  0.57740447    -0.21100
C1437       C  0.88087617  0.09374006  0.57691221    -0.21100
C1438       C  0.84155273  0.15151019  0.63624902    -0.16500
C1439       C  0.84191410  0.10547686  0.59568714    -0.16500
C1440       C  0.90267695  0.10791196  0.59426871    -0.16500
C1441       C  0.90239729  0.15281068  0.63584709    -0.16500
H1442       H  0.80975408  0.13466662  0.63336407     0.16400
H1443       H  0.80995824  0.10982945  0.61150001     0.16400
H1444       H  0.93408300  0.13622607  0.63359295     0.16400
H1445       H  0.93424785  0.11202116  0.61106893     0.16400
H1446       H  0.85520217  0.18008158  0.65369688     0.14700
H1447       H  0.88831313  0.18082512  0.65342809     0.14700
H1448       H  0.85575963  0.08548869  0.56917341     0.14700
H1449       H  0.88881359  0.08695066  0.56827978     0.14700
H1450       H  0.85849099  0.13216943  0.61219322     0.28000
H1451       H  0.88581796  0.13410667  0.61069517     0.28000
N1452       N  0.63236339  0.12651041  0.82732561    -0.34800
N1453       N  0.65201671  0.14577536  0.85180639    -0.55300
N1454       N  0.63542130  0.12767010  0.87894043    -0.34800
N1455       N  0.61428433  0.11006786  0.85445645    -0.55300
C1456       C  0.63939160  0.13821021  0.81723355     0.28800
C1457       C  0.61962623  0.11921659  0.81864736     0.28800
C1458       C  0.64368775  0.13965713  0.88778262     0.28800
C1459       C  0.62365569  0.12098627  0.88917845     0.28800
C1460       C  0.65988638  0.15068035  0.83762694     0.37400
C1461       C  0.66154445  0.15124077  0.86481237     0.37400
C1462       C  0.60793820  0.10121178  0.84139643     0.37400
C1463       C  0.60934087  0.10206132  0.86853393     0.37400
C1464       C  0.63112003  0.13822033  0.80185715    -0.20100
C1465       C  0.61866401  0.12623100  0.80274907    -0.20100
C1466       C  0.63729035  0.14037683  0.90395538    -0.20100
C1467       C  0.62465653  0.12860624  0.90482951    -0.20100
C1468       C  0.67441391  0.15951324  0.84164403    -0.21100
C1469       C  0.67545908  0.15987316  0.85887713    -0.21100
C1470       C  0.59872920  0.08760720  0.84720683    -0.21100
C1471       C  0.59960148  0.08815605  0.86441231    -0.21100
C1472       C  0.65356872  0.14825661  0.82118603    -0.16500
C1473       C  0.60939643  0.10587326  0.82438164    -0.16500
C1474       C  0.61248920  0.10777221  0.88502899    -0.16500
C1475       C  0.65725412  0.14950544  0.88191969    -0.16500
H1476       H  0.63383317  0.14598947  0.79105738     0.16400
H1477       H  0.60994003  0.12299837  0.79278638     0.16400
H1478       H  0.64128798  0.14854273  0.91410376     0.16400
H1479       H  0.61708018  0.12596017  0.91577091     0.16400
H1480       H  0.68322208  0.16527879  0.83306469     0.14700
H1481       H  0.68522539  0.16596406  0.86619633     0.14700
H1482       H  0.59189984  0.07838656  0.83983615     0.14700
H1483       H  0.59359436  0.07942543  0.87291187     0.14700
H1484       H  0.63664933  0.12302458  0.83909611     0.28000
H1485       H  0.63819427  0.12371438  0.86688437     0.28000
C1486       C  0.01977584  0.70711432  0.52273803     0.82000
N1487       N  0.02589042  0.70321846  0.50732047    -0.76300
C1488       C  0.03943811  0.71164069  0.50125142     0.84500
N1489       N  0.04691118  0.72379198  0.51061259    -0.76200
C1490       C  0.04082667  0.72765960  0.52598075     0.84600
N1491       N  0.02728227  0.71931386  0.53207346    -0.77900
N1492       N  0.12835643  0.63648524  0.39296809    -0.34800
N1493       N  0.11265510  0.65550980  0.36580391    -0.55300
N1494       N  0.12903486  0.63388342  0.34138063    -0.34800
N1495       N  0.14650656  0.61642138  0.36847517    -0.55300
C1496       C  0.12136602  0.64912599  0.40181155     0.28800
C1497       C  0.13942153  0.62868223  0.40320392     0.28800
C1498       C  0.12277387  0.64582517  0.33112115     0.28800
C1499       C  0.14054242  0.62522313  0.33252681     0.28800
C1500       C  0.10425637  0.66211940  0.37891657     0.37400
C1501       C  0.10478920  0.66085350  0.35175443     0.37400
C1502       C  0.15122244  0.60828643  0.38257380     0.37400
C1503       C  0.15142834  0.60683322  0.35541434     0.37400
C1504       C  0.12791388  0.64923385  0.41798670    -0.20100
C1505       C  0.13931381  0.63635814  0.41885842    -0.20100
C1506       C  0.13024897  0.64461397  0.31546866    -0.20100
C1507       C  0.14146895  0.63161537  0.31635476    -0.20100
C1508       C  0.09116629  0.67199185  0.37315595    -0.21100
C1509       C  0.09150977  0.67119286  0.35594409    -0.21100
C1510       C  0.15944534  0.59356256  0.37844235    -0.21100
C1511       C  0.15955848  0.59263369  0.36122939    -0.21100
C1512       C  0.10867175  0.66002434  0.39597323    -0.16500
C1513       C  0.14900564  0.61436903  0.39907724    -0.16500
C1514       C  0.14961357  0.61121162  0.33834385    -0.16500
C1515       C  0.10991749  0.65720866  0.33520760    -0.16500
H1516       H  0.12476143  0.65767454  0.42814461     0.16400
H1517       H  0.14660817  0.63297300  0.42982285     0.16400
H1518       H  0.12782247  0.65225681  0.30451290     0.16400
H1519       H  0.14935520  0.62731489  0.30620388     0.16400
H1520       H  0.08234224  0.67910947  0.38056788     0.14700
H1521       H  0.08301251  0.67757016  0.34749161     0.14700
H1522       H  0.16489948  0.58449222  0.38693154     0.14700
H1523       H  0.16514569  0.58272950  0.35384641     0.14700
H1524       H  0.12505177  0.63282579  0.38093314     0.28000
H1525       H  0.12497553  0.63114352  0.35340240     0.28000
C1526       C  0.23416887  0.70263740  0.71465101     0.82000
N1527       N  0.22717309  0.69669136  0.72897285    -0.76300
C1528       C  0.21286080  0.70362748  0.73489224     0.84500
N1529       N  0.20546843  0.71636495  0.72641686    -0.76200
C1530       C  0.21244978  0.72227607  0.71208397     0.84600
N1531       N  0.22676845  0.71536949  0.70616193    -0.77900
C1532       C  0.21154681  0.53111532  0.52630093     0.82000
N1533       N  0.22592339  0.53830832  0.53210547    -0.76300
C1534       C  0.23281312  0.55155509  0.52389386     0.84500
N1535       N  0.22525296  0.55767622  0.50990284    -0.76200
C1536       C  0.21087573  0.55047170  0.50407021     0.84600
N1537       N  0.20399755  0.53722709  0.51230285    -0.77900
N1538       N  0.34057327  0.62359670  0.62204249    -0.34800
N1539       N  0.36648795  0.64050060  0.64216758    -0.55300
N1540       N  0.39221545  0.62209896  0.62407081    -0.34800
N1541       N  0.36649093  0.60698195  0.60246615    -0.55300
C1542       C  0.33109624  0.63469972  0.63060843     0.28800
C1543       C  0.33115368  0.61758898  0.60915706     0.28800
C1544       C  0.40184676  0.63333954  0.63251552     0.28800
C1545       C  0.40184846  0.61530415  0.61193653     0.28800
C1546       C  0.35282169  0.64538596  0.65082566     0.37400
C1547       C  0.37999111  0.64503621  0.65147824     0.37400
C1548       C  0.35282264  0.59965856  0.59544267     0.37400
C1549       C  0.37994693  0.59832711  0.59702555     0.37400
C1550       C  0.31529696  0.63553430  0.62327136    -0.20100
C1551       C  0.31534749  0.62478701  0.60972404    -0.20100
C1552       C  0.41787643  0.63355094  0.62577708    -0.20100
C1553       C  0.41788502  0.62215289  0.61280625    -0.20100
C1554       C  0.35768576  0.65333102  0.66560034    -0.21100
C1555       C  0.37490236  0.65312736  0.66599751    -0.21100
C1556       C  0.35764358  0.58640414  0.58527173    -0.21100
C1557       C  0.37482484  0.58552525  0.58631942    -0.21100
C1558       C  0.33606710  0.64361420  0.64520885    -0.16500
C1559       C  0.33616708  0.60533761  0.59730915    -0.16500
C1560       C  0.39682208  0.60255213  0.60062558    -0.16500
C1561       C  0.39684229  0.64276689  0.64664452    -0.16500
H1562       H  0.30480674  0.64311761  0.62724562     0.16400
H1563       H  0.30488426  0.62248853  0.60130241     0.16400
H1564       H  0.42850782  0.64106345  0.62984162     0.16400
H1565       H  0.42851940  0.61921821  0.60493792     0.16400
H1566       H  0.34967842  0.65883470  0.67504776     0.14700
H1567       H  0.38276681  0.65841396  0.67580416     0.14700
H1568       H  0.34963266  0.57828194  0.57779197     0.14700
H1569       H  0.38266092  0.57665008  0.57973791     0.14700
H1570       H  0.35252150  0.61978553  0.62531771     0.28000
H1571       H  0.38007154  0.61852282  0.62702360     0.28000
C1572       C  0.03812600  0.54881354  0.72618080     0.82000
N1573       N  0.04713515  0.53568928  0.72027145    -0.76300
C1574       C  0.04254191  0.52805505  0.70570956     0.84500
N1575       N  0.02899998  0.53359964  0.69701136    -0.76200
C1576       C  0.02000015  0.54672642  0.70291965     0.84600
N1577       N  0.02459070  0.55436847  0.71748145    -0.77900
N1578       N  0.13617057  0.42424416  0.62358985    -0.34800
N1579       N  0.15182204  0.39856532  0.60276674    -0.55300
N1580       N  0.13540876  0.37256069  0.62269188    -0.34800
N1581       N  0.11812734  0.39821868  0.64207709    -0.55300
C1582       C  0.14240151  0.43381839  0.61102991     0.28800
C1583       C  0.12485130  0.43363360  0.63197225     0.28800
C1584       C  0.14175368  0.36322444  0.61005111     0.28800
C1585       C  0.12369309  0.36306914  0.63052341     0.28800
C1586       C  0.15992523  0.41221882  0.59676867     0.37400
C1587       C  0.15981277  0.38501794  0.59654272     0.37400
C1588       C  0.11358536  0.41167794  0.65128542     0.37400
C1589       C  0.11290971  0.38451114  0.65058058     0.37400
C1590       C  0.13515110  0.44959662  0.61162382    -0.20100
C1591       C  0.12409757  0.44948418  0.62483225    -0.20100
C1592       C  0.13418355  0.34749078  0.61004292    -0.20100
C1593       C  0.12278801  0.34740210  0.62293055    -0.20100
C1594       C  0.17304136  0.40732537  0.58650119    -0.21100
C1595       C  0.17297859  0.39007957  0.58637303    -0.21100
C1596       C  0.10527818  0.40650337  0.66566492    -0.21100
C1597       C  0.10483414  0.38927710  0.66520562    -0.21100
C1598       C  0.15490844  0.42897356  0.59946779    -0.16500
C1599       C  0.11560948  0.42852810  0.64621744    -0.16500
C1600       C  0.11427320  0.36785467  0.64472797    -0.16500
C1601       C  0.15460643  0.36822360  0.59891655    -0.16500
H1602       H  0.13757505  0.46013033  0.60340359     0.16400
H1603       H  0.11637183  0.45990932  0.62871500     0.16400
H1604       H  0.13658795  0.33711893  0.60161375     0.16400
H1605       H  0.11476804  0.33694709  0.62632662     0.16400
H1606       H  0.18161354  0.41533811  0.57964193     0.14700
H1607       H  0.18147231  0.38217886  0.57938101     0.14700
H1608       H  0.09984095  0.41432428  0.67532055     0.14700
H1609       H  0.09902389  0.38119993  0.67445031     0.14700
H1610       H  0.14001384  0.41227010  0.62677513     0.28000
H1611       H  0.13944614  0.38441671  0.62627138     0.28000
N1612       N  0.91133154  0.62343363  0.60949505    -0.34800
N1613       N  0.88604944  0.60720139  0.63051889    -0.55300
N1614       N  0.85970982  0.62358468  0.61114512    -0.34800
N1615       N  0.88506215  0.64152530  0.59161050    -0.55300
C1616       C  0.92118118  0.61665880  0.62154791     0.28800
C1617       C  0.92067544  0.63496305  0.60121561     0.28800
C1618       C  0.85060046  0.61716864  0.62393577     0.28800
C1619       C  0.85004838  0.63504301  0.60326494     0.28800
C1620       C  0.89973084  0.59873876  0.63577353     0.37400
C1621       C  0.87256899  0.59903717  0.63680988     0.37400
C1622       C  0.89840900  0.64639487  0.58235505     0.37400
C1623       C  0.87119955  0.64622254  0.58303530     0.37400
C1624       C  0.93707605  0.62382173  0.62078865    -0.20100
C1625       C  0.93675606  0.63536710  0.60797552    -0.20100
C1626       C  0.83485742  0.62451087  0.62407274    -0.20100
C1627       C  0.83450359  0.63578096  0.61102450    -0.20100
C1628       C  0.89493473  0.58524828  0.64567019    -0.21100
C1629       C  0.87771708  0.58544156  0.64633260    -0.21100
C1630       C  0.89300561  0.65447522  0.56792624    -0.21100
C1631       C  0.87576415  0.65435035  0.56834675    -0.21100
C1632       C  0.91648738  0.60363063  0.63264357    -0.16500
C1633       C  0.91536743  0.64451359  0.58722536    -0.16500
C1634       C  0.85454843  0.64421360  0.58878009    -0.16500
C1635       C  0.85577387  0.60427191  0.63491267    -0.16500
H1636       H  0.94783249  0.62097416  0.62860112     0.16400
H1637       H  0.94722598  0.64310572  0.60403029     0.16400
H1638       H  0.82463345  0.62194098  0.63261740     0.16400
H1639       H  0.82395520  0.64357359  0.60759827     0.16400
H1640       H  0.90299979  0.57630740  0.65190672     0.14700
H1641       H  0.86989936  0.57667010  0.65316599     0.14700
H1642       H  0.90068031  0.66000805  0.55818868     0.14700
H1643       H  0.86754009  0.65979174  0.55900499     0.14700
H1644       H  0.89922131  0.61970235  0.60648421     0.28000
H1645       H  0.87147861  0.61966958  0.60738456     0.28000
N1646       N  0.12259543  0.82773307  0.62558858    -0.34800
N1647       N  0.14028417  0.85260559  0.64589339    -0.55300
N1648       N  0.12194576  0.87929129  0.62871138    -0.34800
N1649       N  0.10595271  0.85463662  0.60692748    -0.55300
C1650       C  0.13410563  0.81789738  0.63322355     0.28800
C1651       C  0.11624384  0.81898292  0.61243826     0.28800
C1652       C  0.13342584  0.88843018  0.63734142     0.28800
C1653       C  0.11508972  0.88948399  0.61702812     0.28800
C1654       C  0.14521825  0.83862299  0.65405005     0.37400
C1655       C  0.14499989  0.86575325  0.65556974     0.37400
C1656       C  0.09808548  0.84126706  0.59997201     0.37400
C1657       C  0.09742722  0.86836603  0.60192908     0.37400
C1658       C  0.13483997  0.80255265  0.62501289    -0.20100
C1659       C  0.12358611  0.80323819  0.61190038    -0.20100
C1660       C  0.13373199  0.90472221  0.63119147    -0.20100
C1661       C  0.12214432  0.90538851  0.61839286    -0.20100
C1662       C  0.15332385  0.84291334  0.66890622    -0.21100
C1663       C  0.15318979  0.86011864  0.66986580    -0.21100
C1664       C  0.08460453  0.84654209  0.59029114    -0.21100
C1665       C  0.08417674  0.86372252  0.59155205    -0.21100
C1666       C  0.14352566  0.82214504  0.64771926    -0.16500
C1667       C  0.10353477  0.82450288  0.60133600    -0.16500
C1668       C  0.10210821  0.88505879  0.60571794    -0.16500
C1669       C  0.14296609  0.88276196  0.65117197    -0.16500
H1670       H  0.14267652  0.79194756  0.62812772     0.16400
H1671       H  0.12108708  0.79324336  0.60299737     0.16400
H1672       H  0.14141826  0.91511164  0.63554246     0.16400
H1673       H  0.11921177  0.91636727  0.61098297     0.16400
H1674       H  0.15892025  0.83453823  0.67800099     0.14700
H1675       H  0.15865238  0.86762380  0.67985028     0.14700
H1676       H  0.07607317  0.83883498  0.58294808     0.14700
H1677       H  0.07527588  0.87186854  0.58536032     0.14700
H1678       H  0.11870069  0.83943766  0.62958879     0.28000
H1679       H  0.11831511  0.86708123  0.63131133     0.28000
N1680       N  0.11464708  0.63211697  0.84132755    -0.34800
N1681       N  0.09591457  0.61349052  0.86649913    -0.55300
N1682       N  0.11424397  0.63126729  0.89299192    -0.34800
N1683       N  0.13440269  0.64830956  0.86778713    -0.55300
C1684       C  0.10686187  0.62051894  0.83157068     0.28800
C1685       C  0.12733648  0.63876372  0.83224026     0.28800
C1686       C  0.10639489  0.61925495  0.90204054     0.28800
C1687       C  0.12667153  0.63767697  0.90272027     0.28800
C1688       C  0.08706755  0.60886028  0.85274280     0.37400
C1689       C  0.08697521  0.60830203  0.87989541     0.37400
C1690       C  0.14031920  0.65685221  0.85441995     0.37400
C1691       C  0.14006888  0.65643616  0.88160066     0.37400
C1692       C  0.11454007  0.61995947  0.81597846    -0.20100
C1693       C  0.12746803  0.63146058  0.81640196    -0.20100
C1694       C  0.11373277  0.61822111  0.91783981    -0.20100
C1695       C  0.12652655  0.62984960  0.91826795    -0.20100
C1696       C  0.07250970  0.60049834  0.85740594    -0.21100
C1697       C  0.07245675  0.60013322  0.87463783    -0.21100
C1698       C  0.14994609  0.67042057  0.85975419    -0.21100
C1699       C  0.14978553  0.67015755  0.87700122    -0.21100
C1700       C  0.09256960  0.61100293  0.83608499    -0.16500
C1701       C  0.13829656  0.65174707  0.83756267    -0.16500
C1702       C  0.13768029  0.65084372  0.89821860    -0.16500
C1703       C  0.09237720  0.60969725  0.89671241    -0.16500
H1704       H  0.11115922  0.61211180  0.80536951     0.16400
H1705       H  0.13594794  0.63417837  0.80616433     0.16400
H1706       H  0.11022902  0.60996247  0.92803311     0.16400
H1707       H  0.13477076  0.63226585  0.92884670     0.16400
H1708       H  0.06305275  0.59501452  0.84925059     0.14700
H1709       H  0.06294732  0.59431704  0.88239985     0.14700
H1710       H  0.15662059  0.67938956  0.85203164     0.14700
H1711       H  0.15630567  0.67888511  0.88520623     0.14700
H1712       H  0.11094120  0.63593809  0.85318141     0.28000
H1713       H  0.11076479  0.63542755  0.88116834     0.28000
C1714       C  0.79082683  0.26188834  0.29561364     0.82000
N1715       N  0.79862499  0.26908477  0.28232179    -0.76300
C1716       C  0.79285640  0.28375626  0.27601467     0.84500
N1717       N  0.77938248  0.29127805  0.28303264    -0.76200
C1718       C  0.77159695  0.28408523  0.29632008     0.84600
N1719       N  0.77734570  0.26941351  0.30267081    -0.77900
N1720       N  0.66456531  0.38342842  0.36770029    -0.34800
N1721       N  0.63968440  0.36024223  0.35350387    -0.55300
N1722       N  0.61297568  0.38047290  0.36767964    -0.34800
N1723       N  0.63782580  0.40236637  0.38366237    -0.55300
C1724       C  0.67462816  0.37086130  0.36249016     0.28800
C1725       C  0.67362961  0.39317236  0.37835722     0.28800
C1726       C  0.60416187  0.36687153  0.36246342     0.28800
C1727       C  0.60319992  0.38892781  0.37859200     0.28800
C1728       C  0.65357292  0.35426882  0.34596766     0.37400
C1729       C  0.62643092  0.35290202  0.34574581     0.37400
C1730       C  0.65091227  0.41250557  0.38756144     0.37400
C1731       C  0.62378490  0.41089645  0.38758199     0.37400
C1732       C  0.69040774  0.37280552  0.36969963    -0.20100
C1733       C  0.68977769  0.38687539  0.37971014    -0.20100
C1734       C  0.58850208  0.36676811  0.37000579    -0.20100
C1735       C  0.58789975  0.38067970  0.38020987    -0.20100
C1736       C  0.64913090  0.34285974  0.33351718    -0.21100
C1737       C  0.63192017  0.34201694  0.33336016    -0.21100
C1738       C  0.64516525  0.42750270  0.39419887    -0.21100
C1739       C  0.62795828  0.42648486  0.39420198    -0.21100
C1740       C  0.67019118  0.35812059  0.35088278    -0.16500
C1741       C  0.66793767  0.40792045  0.38637671    -0.16500
C1742       C  0.60735177  0.40431824  0.38641629    -0.16500
C1743       C  0.60953344  0.35506156  0.35044273    -0.16500
H1744       H  0.70127554  0.36492694  0.36791334     0.16400
H1745       H  0.70006754  0.39190417  0.38711438     0.16400
H1746       H  0.57851180  0.35765541  0.36828181     0.16400
H1747       H  0.57733599  0.38436064  0.38785374     0.16400
H1748       H  0.65742306  0.33576145  0.32549233     0.14700
H1749       H  0.62433483  0.33412616  0.32522088     0.14700
H1750       H  0.65259365  0.43798382  0.39877179     0.14700
H1751       H  0.61950276  0.43601898  0.39878443     0.14700
H1752       H  0.65245667  0.38568800  0.36356151     0.28000
H1753       H  0.62458516  0.38431884  0.36325974     0.28000
C1754       C  0.76595588  0.47600448  0.45538909     0.82000
N1755       N  0.77361547  0.48977300  0.44889786    -0.76300
C1756       C  0.78736522  0.49636448  0.45660702     0.84500
N1757       N  0.79356036  0.48909484  0.47069343    -0.76200
C1758       C  0.78590730  0.47532726  0.47717744     0.84600
N1759       N  0.77215366  0.46872274  0.46947783    -0.77900
C1760       C  0.96235528  0.48774800  0.29426127     0.82000
N1761       N  0.95463994  0.48085724  0.28064546    -0.76300
C1762       C  0.96095165  0.46679536  0.27346101     0.84500
N1763       N  0.97490496  0.45956381  0.27996779    -0.76200
C1764       C  0.98262337  0.46642980  0.29357952     0.84600
N1765       N  0.97631554  0.48049351  0.30075993    -0.77900
C1766       C  0.97764492  0.29303316  0.45154196     0.82000
N1767       N  0.97144030  0.27797692  0.44642721    -0.76300
C1768       C  0.95733426  0.27167244  0.45357658     0.84500
N1769       N  0.94939919  0.28044403  0.46577700    -0.76200
C1770       C  0.95560665  0.29551050  0.47086066     0.84600
N1771       N  0.96972407  0.30181052  0.46373902    -0.77900
N1772       N  0.09066831  0.37244665  0.36650489    -0.34800
N1773       N  0.11779211  0.39009575  0.34965211    -0.55300
N1774       N  0.14209526  0.36773320  0.36559578    -0.34800
N1775       N  0.11507231  0.35151598  0.38403144    -0.55300
C1776       C  0.08216940  0.38555946  0.35995913     0.28800
C1777       C  0.08072145  0.36522725  0.37819189     0.28800
C1778       C  0.15239123  0.37964177  0.35922432     0.28800
C1779       C  0.15093011  0.35926276  0.37734220     0.28800
C1780       C  0.10467041  0.39710867  0.34154326     0.37400
C1781       C  0.13172068  0.39466319  0.34117878     0.37400
C1782       C  0.10082021  0.34390624  0.38917527     0.37400
C1783       C  0.12785295  0.34148362  0.38871770     0.37400
C1784       C  0.06649419  0.38653260  0.36741825    -0.20100
C1785       C  0.06558180  0.37371117  0.37891509    -0.20100
C1786       C  0.16804806  0.37856445  0.36682069    -0.20100
C1787       C  0.16712586  0.36569902  0.37826045    -0.20100
C1788       C  0.11029984  0.40635942  0.32793754    -0.21100
C1789       C  0.12745408  0.40480051  0.32769394    -0.21100
C1790       C  0.10457421  0.32903028  0.39735610    -0.21100
C1791       C  0.12172000  0.32749376  0.39706015    -0.21100
C1792       C  0.08784038  0.39617797  0.34692901    -0.16500
C1793       C  0.08460395  0.35076128  0.38765880    -0.16500
C1794       C  0.14498985  0.34548797  0.38677006    -0.16500
C1795       C  0.14827172  0.39095797  0.34625651    -0.16500
H1796       H  0.05668326  0.39550682  0.36481539     0.16400
H1797       H  0.05493364  0.37092096  0.38685331     0.16400
H1798       H  0.17901501  0.38624342  0.36436855     0.16400
H1799       H  0.17724266  0.36156019  0.38633271     0.16400
H1800       H  0.10285194  0.41364161  0.31923596     0.14700
H1801       H  0.13584041  0.41068178  0.31877711     0.14700
H1802       H  0.09588949  0.32031452  0.40314348     0.14700
H1803       H  0.12886305  0.31738839  0.40259506     0.14700
H1804       H  0.10223552  0.36810880  0.36260220     0.28000
H1805       H  0.13001050  0.36498612  0.36151496     0.28000
N1806       N  0.87269575  0.38508467  0.57920798    -0.34800
N1807       N  0.89416443  0.36764002  0.60319665    -0.55300
N1808       N  0.87600550  0.38334822  0.63065871    -0.34800
N1809       N  0.85605387  0.40245607  0.60667211    -0.55300
C1810       C  0.88429681  0.37856377  0.56875810     0.28800
C1811       C  0.86434586  0.39706478  0.57061746     0.28800
C1812       C  0.88895055  0.37643308  0.63914130     0.28800
C1813       C  0.86883633  0.39470420  0.64095896     0.28800
C1814       C  0.89877681  0.35961206  0.58901421     0.37400
C1815       C  0.90061631  0.35881363  0.61614398     0.37400
C1816       C  0.84627159  0.40759365  0.59381179     0.37400
C1817       C  0.84792557  0.40654581  0.62093270     0.37400
C1818       C  0.88318262  0.38635581  0.55323100    -0.20100
C1819       C  0.87061070  0.39804881  0.55440873    -0.20100
C1820       C  0.88991599  0.38335351  0.65512054    -0.20100
C1821       C  0.87722262  0.39489286  0.65626690    -0.20100
C1822       C  0.90845731  0.34574641  0.59295871    -0.21100
C1823       C  0.90962973  0.34524873  0.61016216    -0.21100
C1824       C  0.83193511  0.41521727  0.59992505    -0.21100
C1825       C  0.83297631  0.41453648  0.61713550    -0.21100
C1826       C  0.89520701  0.36517806  0.57256984    -0.16500
C1827       C  0.85064231  0.40644080  0.57670227    -0.16500
C1828       C  0.85437020  0.40415905  0.63726988    -0.16500
C1829       C  0.89928593  0.36340283  0.63320505    -0.16500
H1830       H  0.89058952  0.38381293  0.54216062     0.16400
H1831       H  0.86645769  0.40622848  0.54440339     0.16400
H1832       H  0.89877041  0.38032192  0.66498530     0.16400
H1833       H  0.87441173  0.40245918  0.66718926     0.16400
H1834       H  0.91420643  0.33699383  0.58434505     0.14700
H1835       H  0.91645099  0.33604499  0.61742179     0.14700
H1836       H  0.82186780  0.42082021  0.59274222     0.14700
H1837       H  0.82388043  0.41952832  0.62584799     0.14700
H1838       H  0.86996122  0.38088340  0.59118758     0.28000
H1839       H  0.87165067  0.37977272  0.61890693     0.28000
N1840       N  0.87400400  0.37448401  0.16940468    -0.34800
N1841       N  0.86076173  0.35182175  0.14342953    -0.55300
N1842       N  0.87658584  0.37238322  0.11781638    -0.34800
N1843       N  0.89163477  0.39365891  0.14388239    -0.55300
C1844       C  0.86763763  0.36202929  0.17900066     0.28800
C1845       C  0.88437671  0.38378278  0.17925349     0.28800
C1846       C  0.87178025  0.35897472  0.10849216     0.28800
C1847       C  0.88782428  0.38119501  0.10867414     0.28800
C1848       C  0.85221343  0.34586493  0.15676594     0.37400
C1849       C  0.85390073  0.34453445  0.12967433     0.37400
C1850       C  0.89551420  0.40323121  0.15738043     0.37400
C1851       C  0.89640913  0.40243948  0.13021677     0.37400
C1852       C  0.87376390  0.36362717  0.19526995    -0.20100
C1853       C  0.88434125  0.37732206  0.19542079    -0.20100
C1854       C  0.87988890  0.35940639  0.09311718    -0.20100
C1855       C  0.89000998  0.37342752  0.09322702    -0.20100
C1856       C  0.83999582  0.33453113  0.15147640    -0.21100
C1857       C  0.84107468  0.33368432  0.13429685    -0.21100
C1858       C  0.90300406  0.41811151  0.15227889    -0.21100
C1859       C  0.90353178  0.41763093  0.13505557    -0.21100
C1860       C  0.85597786  0.34965505  0.17368777    -0.16500
C1861       C  0.89342136  0.39824624  0.17424104    -0.16500
C1862       C  0.89562380  0.39640341  0.11356269    -0.16500
C1863       C  0.85969241  0.34683064  0.11312373    -0.16500
H1864       H  0.87094051  0.35572619  0.20594456     0.16400
H1865       H  0.89120030  0.38199291  0.20623642     0.16400
H1866       H  0.87861253  0.35056647  0.08284914     0.16400
H1867       H  0.89804530  0.37745029  0.08305575     0.16400
H1868       H  0.83133354  0.32746620  0.15919810     0.14700
H1869       H  0.83340846  0.32586311  0.12616523     0.14700
H1870       H  0.90775195  0.42817846  0.16014562     0.14700
H1871       H  0.90882625  0.42723356  0.12703577     0.14700
H1872       H  0.87080711  0.37690166  0.15704501     0.28000
H1873       H  0.87179613  0.37586506  0.12936585     0.28000
N1874       N  0.88633143  0.60074166  0.38274919    -0.34800
N1875       N  0.90657534  0.62534091  0.36474430    -0.55300
N1876       N  0.89012941  0.65244533  0.38330593    -0.34800
N1877       N  0.86833324  0.62793784  0.39959739    -0.55300
C1878       C  0.89376392  0.59062826  0.37134270     0.28800
C1879       C  0.87355439  0.59198390  0.38971797     0.28800
C1880       C  0.89895506  0.66148259  0.37199195     0.28800
C1881       C  0.87876862  0.66284454  0.39031553     0.28800
C1882       C  0.91418073  0.61124452  0.35929210     0.37400
C1883       C  0.91612964  0.63838133  0.35957103     0.37400
C1884       C  0.86099868  0.61475373  0.40733986     0.37400
C1885       C  0.86293531  0.64189109  0.40752621     0.37400
C1886       C  0.88579470  0.57509774  0.37130731    -0.20100
C1887       C  0.87307147  0.57594669  0.38288146    -0.20100
C1888       C  0.89339498  0.67796056  0.37210072    -0.20100
C1889       C  0.88068376  0.67881843  0.38365146    -0.20100
C1890       C  0.92856062  0.61536274  0.35042023    -0.21100
C1891       C  0.92979279  0.63255116  0.35059143    -0.21100
C1892       C  0.85070431  0.62037763  0.42015646    -0.21100
C1893       C  0.85192326  0.63756463  0.42026455    -0.21100
C1894       C  0.90782946  0.59478599  0.36132987    -0.16500
C1895       C  0.86261309  0.59780343  0.40240252    -0.16500
C1896       C  0.86694816  0.65850304  0.40278743    -0.16500
C1897       C  0.91218361  0.65548040  0.36189014    -0.16500
H1898       H  0.88880612  0.56425230  0.36371897     0.16400
H1899       H  0.86442368  0.56587316  0.38588006     0.16400
H1900       H  0.89796313  0.68831919  0.36459042     0.16400
H1901       H  0.87360084  0.68995333  0.38670671     0.16400
H1902       H  0.93717098  0.60688337  0.34430725     0.14700
H1903       H  0.93954266  0.63991791  0.34463509     0.14700
H1904       H  0.84295417  0.61289743  0.42843531     0.14700
H1905       H  0.84531097  0.64592112  0.42864175     0.14700
H1906       H  0.89019245  0.61268964  0.38613048     0.28000
H1907       H  0.89219726  0.64005953  0.38649622     0.28000
N1908       N  0.87362717  0.15413379  0.38148792    -0.34800
N1909       N  0.89264339  0.12923164  0.40032990    -0.55300
N1910       N  0.87533780  0.10258841  0.38178354    -0.34800
N1911       N  0.85475952  0.12749213  0.36465938    -0.55300
C1912       C  0.88144044  0.16417381  0.39281038     0.28800
C1913       C  0.86144226  0.16325599  0.37404753     0.28800
C1914       C  0.88334428  0.09352061  0.39365274     0.28800
C1915       C  0.86338330  0.09258503  0.37492022     0.28800
C1916       C  0.90106055  0.14317310  0.40522966     0.37400
C1917       C  0.90186454  0.11601994  0.40545157     0.37400
C1918       C  0.84855928  0.14075649  0.35618514     0.37400
C1919       C  0.84941982  0.11361047  0.35644290     0.37400
C1920       C  0.87423848  0.17998455  0.39243263    -0.20100
C1921       C  0.86163238  0.17940627  0.38059774    -0.20100
C1922       C  0.87655074  0.07745251  0.39417266    -0.20100
C1923       C  0.86395398  0.07686295  0.38234593    -0.20100
C1924       C  0.91558243  0.13879406  0.41377917    -0.21100
C1925       C  0.91609448  0.12157552  0.41391295    -0.21100
C1926       C  0.83897228  0.13526851  0.34265234    -0.21100
C1927       C  0.83951772  0.11806109  0.34281358    -0.21100
C1928       C  0.89544215  0.15976014  0.40279919    -0.16500
C1929       C  0.85074870  0.15770290  0.36093343    -0.16500
C1930       C  0.85248780  0.09699419  0.36165539    -0.16500
C1931       C  0.89714406  0.09904859  0.40341082    -0.16500
H1932       H  0.87777434  0.19086865  0.39982060     0.16400
H1933       H  0.85360036  0.18975491  0.37713600     0.16400
H1934       H  0.88031375  0.06718286  0.40219871     0.16400
H1935       H  0.85613990  0.06605874  0.37950840     0.16400
H1936       H  0.92479975  0.14712670  0.41940804     0.14700
H1937       H  0.92576521  0.11401819  0.41968414     0.14700
H1938       H  0.83219245  0.14285644  0.33367072     0.14700
H1939       H  0.83321607  0.10978325  0.33399643     0.14700
H1940       H  0.87705908  0.14205397  0.37832957     0.28000
H1941       H  0.87849049  0.11459126  0.37792667     0.28000
O1942       O  0.01495095  0.27573382  0.77541031    -0.76700
C1943       C  0.97274903  0.24121752  0.76808337     0.84400
O1944       O  0.03531449  0.23033954  0.74096656    -0.77800
O1945       O  0.98037819  0.23590293  0.71467338    -0.79300
O1946       O  0.98878050  0.29499212  0.72421820    -0.79100
O1947       O  0.01653807  0.29594019  0.75614887    -0.77700
Zn1948     Zn  0.00806014  0.25487522  0.76291891     1.55700
O1949       O  0.96902315  0.27498167  0.72380400    -0.79100
Cd1950     Cd  0.00946760  0.28337045  0.73457094     1.59700
Cd1951     Cd  0.02054321  0.24494527  0.72533244     1.59600
O1952       O  0.02900359  0.28587260  0.71797939    -0.79100
O1953       O  0.00494925  0.25917647  0.73915459    -1.89600
Cd1954     Cd  0.98117723  0.25406584  0.73301401     1.59900
O1955       O  0.03667409  0.25982888  0.71110515    -0.79000
O1956       O  0.96809870  0.24430475  0.75311861    -0.77700
C1957       C  0.03592896  0.22959818  0.75692437     0.84800
C1958       C  0.01814320  0.29078202  0.77116325     0.84500
O1959       O  0.98738293  0.24482694  0.77345683    -0.76600
C1960       C  0.97396906  0.28990373  0.72087905     0.85300
O1961       O  0.02645597  0.23828541  0.76628269    -0.76700
C1962       C  0.03827125  0.27571157  0.70997917     0.85400
C1963       C  0.99129070  0.22725193  0.70697952     0.85800
O1964       O  0.00701618  0.22901912  0.70946544    -0.79200
C1965       C  0.04562910  0.20212222  0.01890580     0.82000
N1966       N  0.03284940  0.19393962  0.02665809    -0.76300
C1967       C  0.02683419  0.19982063  0.04144503     0.84500
N1968       N  0.03357337  0.21386280  0.04844662    -0.76200
C1969       C  0.04634411  0.22202054  0.04068982     0.84600
N1970       N  0.05237958  0.21615155  0.02592403    -0.77900
N1971       N  0.12580443  0.33584835  0.12323132    -0.34800
N1972       N  0.14464618  0.36157158  0.14133507    -0.55300
N1973       N  0.12754206  0.38727738  0.12184643    -0.34800
N1974       N  0.10715210  0.36163729  0.10530491    -0.55300
C1975       C  0.13257290  0.32662901  0.13576384     0.28800
C1976       C  0.11330193  0.32661555  0.11626780     0.28800
C1977       C  0.13567677  0.39682787  0.13335251     0.28800
C1978       C  0.11545354  0.39687784  0.11488029     0.28800
C1979       C  0.15285335  0.34785288  0.14682574     0.37400
C1980       C  0.15425540  0.37494467  0.14555986     0.37400
C1981       C  0.10170006  0.34801858  0.09672284     0.37400
C1982       C  0.10209058  0.37518800  0.09652890     0.37400
C1983       C  0.12433828  0.31127034  0.13669539    -0.20100
C1984       C  0.11219872  0.31124477  0.12436003    -0.20100
C1985       C  0.12881737  0.41278585  0.13358206    -0.20100
C1986       C  0.11602585  0.41280944  0.12194731    -0.20100
C1987       C  0.16765169  0.35253113  0.15482024    -0.21100
C1988       C  0.16855927  0.36972550  0.15398758    -0.21100
C1989       C  0.09291672  0.35292768  0.08250654    -0.21100
C1990       C  0.09311993  0.37017495  0.08241327    -0.21100
C1991       C  0.14661119  0.33130301  0.14564904    -0.16500
C1992       C  0.10354883  0.33131313  0.10221639    -0.16500
C1993       C  0.10461934  0.39196786  0.10165441    -0.16500
C1994       C  0.14968589  0.39180359  0.14295217    -0.16500
H1995       H  0.12692956  0.30105902  0.14524649     0.16400
H1996       H  0.10360526  0.30102529  0.12159978     0.16400
H1997       H  0.13268221  0.42335141  0.14126790     0.16400
H1998       H  0.10816117  0.42341865  0.11892222     0.16400
H1999       H  0.17675678  0.34442146  0.16075566     0.14700
H2000       H  0.17848354  0.37750114  0.15919379     0.14700
H2001       H  0.08678930  0.34493145  0.07331654     0.14700
H2002       H  0.08724416  0.37811012  0.07310082     0.14700
H2003       H  0.13015798  0.34733776  0.11893007     0.28000
H2004       H  0.13075955  0.37522792  0.11824202     0.28000
C2005       C  0.04223598  0.03999282  0.23037510     0.82000
N2006       N  0.04806273  0.02727675  0.22071366    -0.76300
C2007       C  0.03924956  0.02218802  0.20699121     0.84500
N2008       N  0.02465080  0.02986715  0.20289143    -0.76200
C2009       C  0.01881649  0.04257527  0.21256793     0.84600
N2010       N  0.02764031  0.04767889  0.22627729    -0.77900
C2011       C  0.20568890  0.22474620  0.20846267     0.82000
N2012       N  0.19924962  0.21722013  0.22233818    -0.76300
C2013       C  0.20595229  0.20263609  0.22798589     0.84500
N2014       N  0.21902222  0.19561938  0.21976499    -0.76200
C2015       C  0.22542149  0.20311077  0.20591636     0.84600
N2016       N  0.21876628  0.21767511  0.20025523    -0.77900
N2017       N  0.13681830  0.11196681  0.34108289    -0.34800
N2018       N  0.15678969  0.12828547  0.36709658    -0.55300
N2019       N  0.13664783  0.11109678  0.39266044    -0.34800
N2020       N  0.11829497  0.09308993  0.36654761    -0.55300
C2021       C  0.14893820  0.11915927  0.33162505     0.28800
C2022       C  0.12870931  0.10060553  0.33132992     0.28800
C2023       C  0.14881881  0.11802383  0.40233666     0.28800
C2024       C  0.12876424  0.09930570  0.40199819     0.28800
C2025       C  0.16247121  0.13697037  0.35368389     0.37400
C2026       C  0.16233795  0.13652752  0.38089204     0.37400
C2027       C  0.10929675  0.08862883  0.35283378     0.37400
C2028       C  0.10940337  0.08795496  0.38001827     0.37400
C2029       C  0.14844202  0.11236770  0.31557401    -0.20100
C2030       C  0.13569175  0.10065346  0.31538972    -0.20100
C2031       C  0.14852683  0.11071478  0.41813988    -0.20100
C2032       C  0.13589501  0.09888248  0.41791639    -0.20100
C2033       C  0.17199074  0.15061617  0.35897641    -0.21100
C2034       C  0.17190801  0.15034074  0.37622043    -0.21100
C2035       C  0.09469039  0.08039662  0.35760386    -0.21100
C2036       C  0.09477258  0.07994826  0.37484259    -0.21100
C2037       C  0.15969854  0.13239070  0.33675252    -0.16500
C2038       C  0.11455402  0.09097633  0.33609402    -0.16500
C2039       C  0.11478889  0.08955353  0.39685009    -0.16500
C2040       C  0.15957328  0.13134446  0.39761311    -0.16500
H2041       H  0.15634163  0.11562371  0.30503106     0.16400
H2042       H  0.13187653  0.09316436  0.30466627     0.16400
H2043       H  0.15654002  0.11364879  0.42876707     0.16400
H2044       H  0.13229612  0.09096583  0.42834447     0.16400
H2045       H  0.17836735  0.15977948  0.35123238     0.14700
H2046       H  0.17823293  0.15925386  0.38437712     0.14700
H2047       H  0.08506587  0.07511392  0.34951180     0.14700
H2048       H  0.08522104  0.07427918  0.38265899     0.14700
H2049       H  0.13351746  0.11539376  0.35316085     0.28000
H2050       H  0.13331290  0.11491866  0.38069515     0.28000
C2051       C  0.23149990  0.04406867  0.02793823     0.82000
N2052       N  0.22495213  0.03070244  0.03618616    -0.76300
C2053       C  0.21084561  0.02310168  0.03031643     0.84500
N2054       N  0.20318876  0.02892346  0.01627878    -0.76200
C2055       C  0.20972765  0.04229687  0.00802936     0.84600
N2056       N  0.22385314  0.04993858  0.01389166    -0.77900
N2057       N  0.33760290  0.12538735  0.12059093    -0.34800
N2058       N  0.36312174  0.14163313  0.14146803    -0.55300
N2059       N  0.38909843  0.12599882  0.12132514    -0.34800
N2060       N  0.36356763  0.11150736  0.09917928    -0.55300
C2061       C  0.32808233  0.13633404  0.12929468     0.28800
C2062       C  0.32829778  0.11983020  0.10745800     0.28800
C2063       C  0.39839778  0.13671141  0.13075712     0.28800
C2064       C  0.39860644  0.12136456  0.10810569     0.28800
C2065       C  0.34937240  0.14545358  0.15052068     0.37400
C2066       C  0.37653456  0.14521404  0.15128126     0.37400
C2067       C  0.35016579  0.10318813  0.09280880     0.37400
C2068       C  0.37732113  0.10412718  0.09272589     0.37400
C2069       C  0.31245240  0.13764925  0.12165306    -0.20100
C2070       C  0.31257864  0.12719460  0.10789447    -0.20100
C2071       C  0.41410174  0.13876048  0.12356037    -0.20100
C2072       C  0.41422316  0.12910088  0.10924358    -0.20100
C2073       C  0.35406010  0.15174148  0.16610623    -0.21100
C2074       C  0.37129804  0.15155510  0.16660421    -0.21100
C2075       C  0.35541316  0.09057368  0.08205794    -0.21100
C2076       C  0.37264791  0.09120203  0.08197017    -0.21100
C2077       C  0.33274209  0.14435192  0.14446783    -0.16500
C2078       C  0.33330958  0.10761621  0.09567202    -0.16500
C2079       C  0.39394724  0.10959850  0.09563099    -0.16500
C2080       C  0.39338460  0.14402255  0.14608146    -0.16500
H2081       H  0.30196112  0.14520716  0.12567215     0.16400
H2082       H  0.30223796  0.12517418  0.09925303     0.16400
H2083       H  0.42443496  0.14637315  0.12817538     0.16400
H2084       H  0.42469106  0.12780515  0.10072945     0.16400
H2085       H  0.34592101  0.15615890  0.17600246     0.14700
H2086       H  0.37908103  0.15585019  0.17694179     0.14700
H2087       H  0.34764153  0.08198659  0.07484996     0.14700
H2088       H  0.38079542  0.08316358  0.07472518     0.14700
H2089       H  0.34938764  0.12112403  0.12400523     0.28000
H2090       H  0.37731480  0.12133252  0.12429742     0.28000
N2091       N  0.12329772  0.12560395  0.90096860    -0.34800
N2092       N  0.14198743  0.10918220  0.87424134    -0.55300
N2093       N  0.12503262  0.13023314  0.84960270    -0.34800
N2094       N  0.10804979  0.14817205  0.87650058    -0.55300
C2095       C  0.13410664  0.11632517  0.91015336     0.28800
C2096       C  0.11651162  0.13712856  0.91136637     0.28800
C2097       C  0.13703021  0.12324150  0.83993625     0.28800
C2098       C  0.11881704  0.14348109  0.84108412     0.28800
C2099       C  0.14610351  0.09892560  0.88707517     0.37400
C2100       C  0.14725548  0.10160097  0.86004888     0.37400
C2101       C  0.09955720  0.15298987  0.89031483     0.37400
C2102       C  0.10008200  0.15503898  0.86320959     0.37400
C2103       C  0.13397313  0.12184080  0.92669422    -0.20100
C2104       C  0.12289349  0.13496355  0.92745558    -0.20100
C2105       C  0.13836194  0.13207369  0.82499978    -0.20100
C2106       C  0.12684809  0.14484033  0.82571449    -0.20100
C2107       C  0.15426776  0.08484827  0.88103764    -0.21100
C2108       C  0.15498898  0.08653606  0.86389953    -0.21100
C2109       C  0.08627111  0.16322429  0.88581074    -0.21100
C2110       C  0.08657276  0.16448323  0.86861547    -0.21100
C2111       C  0.14357667  0.10261329  0.90421123    -0.16500
C2112       C  0.10414173  0.14899677  0.90696270    -0.16500
C2113       C  0.10550518  0.15379232  0.84641137    -0.16500
C2114       C  0.14608331  0.10856198  0.84380692    -0.16500
H2115       H  0.14108993  0.11691402  0.93716785     0.16400
H2116       H  0.11983875  0.14204863  0.93863040     0.16400
H2117       H  0.14666580  0.12950011  0.81459816     0.16400
H2118       H  0.12458700  0.15402297  0.81597909     0.16400
H2119       H  0.15932079  0.07452696  0.88823976     0.14700
H2120       H  0.16071303  0.07776437  0.85528942     0.14700
H2121       H  0.07734925  0.16922246  0.89405388     0.14700
H2122       H  0.07797541  0.17170424  0.86099442     0.14700
H2123       H  0.12010050  0.12362411  0.88851722     0.28000
H2124       H  0.12057879  0.12559494  0.86089033     0.28000
N2125       N  0.11828271  0.91791300  0.11103131    -0.34800
N2126       N  0.09597115  0.89242958  0.12476976    -0.55300
N2127       N  0.11476901  0.86648025  0.10711365    -0.34800
N2128       N  0.13845471  0.89174814  0.09523030    -0.55300
C2129       C  0.10987008  0.92725248  0.12239076     0.28800
C2130       C  0.13169018  0.92701336  0.10596956     0.28800
C2131       C  0.10463215  0.85693483  0.11680583     0.28800
C2132       C  0.12736499  0.85656433  0.10169442     0.28800
C2133       C  0.08786658  0.90624992  0.13017692     0.37400
C2134       C  0.08555233  0.87928574  0.12742527     0.37400
C2135       C  0.14577640  0.90537347  0.08828226     0.37400
C2136       C  0.14444948  0.87826317  0.08694254     0.37400
C2137       C  0.11793902  0.94261918  0.12438820    -0.20100
C2138       C  0.13166862  0.94249013  0.11398140    -0.20100
C2139       C  0.11071589  0.84065973  0.11734500    -0.20100
C2140       C  0.12506828  0.84043407  0.10783021    -0.20100
C2141       C  0.07227395  0.90184365  0.13651549    -0.21100
C2142       C  0.07078423  0.88475947  0.13472678    -0.21100
C2143       C  0.15669714  0.90050286  0.07567911    -0.21100
C2144       C  0.15589201  0.88330997  0.07486913    -0.21100
C2145       C  0.09475187  0.92261114  0.13044263    -0.16500
C2146       C  0.14349064  0.92204866  0.09377361    -0.16500
C2147       C  0.14037384  0.86143897  0.09070085    -0.16500
C2148       C  0.08972891  0.86231936  0.12465881    -0.16500
H2149       H  0.11426427  0.95292522  0.13241599     0.16400
H2150       H  0.14061765  0.95264780  0.11249020     0.16400
H2151       H  0.10537287  0.83002428  0.12390569     0.16400
H2152       H  0.13287433  0.82958975  0.10562084     0.16400
H2153       H  0.06300806  0.91005408  0.14200065     0.14700
H2154       H  0.06017412  0.87720049  0.13864447     0.14700
H2155       H  0.16455595  0.90848377  0.06798613     0.14700
H2156       H  0.16295649  0.87543111  0.06640263     0.14700
H2157       H  0.11465853  0.90634604  0.10630078     0.28000
H2158       H  0.11267470  0.87881561  0.10367031     0.28000
N2159       N  0.91216827  0.13204959  0.13329186    -0.34800
N2160       N  0.88516930  0.11733851  0.15321806    -0.55300
N2161       N  0.86054064  0.13357841  0.13165814    -0.34800
N2162       N  0.88752422  0.14651049  0.11046987    -0.55300
C2163       C  0.92092471  0.12097841  0.14268946     0.28800
C2164       C  0.92218359  0.13690632  0.12049077     0.28800
C2165       C  0.85040887  0.12354778  0.14087102     0.28800
C2166       C  0.85166263  0.13853718  0.11806257     0.28800
C2167       C  0.89837624  0.11276427  0.16281305     0.37400
C2168       C  0.87123659  0.11407632  0.16227313     0.37400
C2169       C  0.90150685  0.15367860  0.10409126     0.37400
C2170       C  0.87435814  0.15401869  0.10293876     0.37400
C2171       C  0.93681595  0.11900319  0.13591385    -0.20100
C2172       C  0.93761984  0.12907171  0.12194700    -0.20100
C2173       C  0.83478205  0.12236238  0.13318346    -0.20100
C2174       C  0.83557694  0.13180538  0.11879254    -0.20100
C2175       C  0.89280944  0.10638060  0.17800179    -0.21100
C2176       C  0.87560034  0.10724230  0.17767335    -0.21100
C2177       C  0.89721880  0.16569371  0.09228049    -0.21100
C2178       C  0.87999872  0.16588973  0.09152706    -0.21100
C2179       C  0.91526004  0.11309438  0.15754674    -0.16500
C2180       C  0.91803611  0.14864883  0.10788162    -0.16500
C2181       C  0.85739434  0.14952258  0.10539754    -0.16500
C2182       C  0.85465469  0.11589514  0.15628917    -0.16500
H2183       H  0.94684344  0.11115105  0.14055916     0.16400
H2184       H  0.94835956  0.13042312  0.11377015     0.16400
H2185       H  0.82391433  0.11540019  0.13747180     0.16400
H2186       H  0.82542894  0.13353290  0.10989732     0.16400
H2187       H  0.90034631  0.10140543  0.18815360     0.14700
H2188       H  0.86724997  0.10302652  0.18750850     0.14700
H2189       H  0.90561469  0.17331846  0.08479605     0.14700
H2190       H  0.87250039  0.17372855  0.08337359     0.14700
H2191       H  0.90034448  0.13666290  0.13591190     0.28000
H2192       H  0.87254207  0.13747861  0.13488974     0.28000
C2193       C  0.29643127  0.08424558  0.06836314     0.18900
C2194       C  0.28120716  0.09243354  0.06539333    -0.10300
C2195       C  0.26844984  0.08434690  0.05633995    -0.11100
C2196       C  0.27088223  0.06805338  0.05022845     0.20400
C2197       C  0.28610388  0.05985735  0.05320390    -0.13100
C2198       C  0.29886834  0.06794987  0.06225542    -0.11400
C2199       C  0.25755885  0.05959871  0.04136852     0.01400
C2200       C  0.24592581  0.05251949  0.03469478    -0.31400
C2201       C  0.30950306  0.09253023  0.07774425     0.02800
C2202       C  0.32038909  0.09944175  0.08574403    -0.33100
H2203       H  0.27919646  0.10502241  0.07010519     0.13800
H2204       H  0.25668051  0.09074678  0.05418293     0.13600
H2205       H  0.28806198  0.04721778  0.04860930     0.13500
H2206       H  0.31059373  0.06150909  0.06452566     0.12500
C2207       C  0.18883989  0.98463695  0.05557742     0.18900
C2208       C  0.18634419  0.96918441  0.04753309    -0.10300
C2209       C  0.17774124  0.95629669  0.05573068    -0.11100
C2210       C  0.17162571  0.95884828  0.07198309     0.20400
C2211       C  0.17422129  0.97425816  0.08008966    -0.13100
C2212       C  0.18283418  0.98715412  0.07188801    -0.11400
C2213       C  0.16228377  0.94580411  0.08011996     0.01400
C2214       C  0.15400154  0.93493676  0.08654307    -0.31400
C2215       C  0.19712946  0.99803805  0.04688359     0.02800
C2216       C  0.20363000  0.00937089  0.03932977    -0.33100
H2217       H  0.19090270  0.96716611  0.03489459     0.13800
H2218       H  0.17572585  0.94442231  0.04936280     0.13600
H2219       H  0.16946467  0.97633667  0.09264528     0.13500
H2220       H  0.18466577  0.99910028  0.07817150     0.12500
C2221       C  0.16789578  0.07650106  0.94087983     0.18900
C2222       C  0.15933908  0.06586924  0.95196311    -0.10300
C2223       C  0.16792460  0.05850659  0.96538280    -0.11100
C2224       C  0.18507174  0.06178233  0.96774356     0.20400
C2225       C  0.19361118  0.07238844  0.95664034    -0.13100
C2226       C  0.18503672  0.07973838  0.94323542    -0.11400
C2227       C  0.19387276  0.05452742  0.98170078     0.01400
C2228       C  0.20126043  0.04879778  0.99356995    -0.31400
C2229       C  0.15904746  0.08458021  0.92742839     0.02800
C2230       C  0.15190757  0.09226407  0.91656416    -0.33100
H2231       H  0.14605308  0.06337988  0.95029990     0.13800
H2232       H  0.16120006  0.05036505  0.97394946     0.13600
H2233       H  0.20685372  0.07504332  0.95840319     0.13500
H2234       H  0.19173077  0.08802888  0.93478746     0.12500
C2235       C  0.18939007  0.17787211  0.26958366     0.18900
C2236       C  0.17521134  0.18286637  0.27860329    -0.10300
C2237       C  0.17012947  0.17381466  0.29275397    -0.11100
C2238       C  0.17920314  0.15972842  0.29797167     0.20400
C2239       C  0.19340552  0.15474549  0.28897140    -0.13100
C2240       C  0.19849240  0.16380287  0.27481630    -0.11400
C2241       C  0.17358117  0.15013946  0.31222003     0.01400
C2242       C  0.16792078  0.14205964  0.32370373    -0.31400
C2243       C  0.19459999  0.18713168  0.25496596     0.02800
C2244       C  0.19938592  0.19455384  0.24267972    -0.33100
H2245       H  0.16807051  0.19370792  0.27467415     0.13800
H2246       H  0.15907841  0.17773446  0.29956390     0.13600
H2247       H  0.20046878  0.14382836  0.29283078     0.13500
H2248       H  0.20947256  0.15981432  0.26793095     0.12500
C2249       C  0.29360940  0.16583025  0.16923060     0.18900
C2250       C  0.29571742  0.17764577  0.18211019    -0.10300
C2251       C  0.28170445  0.18528469  0.18925579    -0.11100
C2252       C  0.26555307  0.18113874  0.18353218     0.20400
C2253       C  0.26343820  0.16921123  0.17074589    -0.13100
C2254       C  0.27745250  0.16157410  0.16359800    -0.11400
C2255       C  0.25118824  0.18908355  0.19085437     0.01400
C2256       C  0.23932932  0.19565248  0.19742253    -0.31400
C2257       C  0.30798653  0.15838191  0.16145389     0.02800
C2258       C  0.31958373  0.15211453  0.15416594    -0.33100
H2259       H  0.30816562  0.18103059  0.18652565     0.13800
H2260       H  0.28345728  0.19446032  0.19917427     0.13600
H2261       H  0.25099591  0.16588593  0.16626787     0.13500
H2262       H  0.27571047  0.15246398  0.15361371     0.12500
C2263       C  0.08747189  0.06956572  0.29795897     0.18900
C2264       C  0.09577382  0.06440336  0.28338864    -0.10300
C2265       C  0.08659415  0.05795012  0.26982585    -0.11100
C2266       C  0.06908587  0.05665291  0.27079540     0.20400
C2267       C  0.06079508  0.06171115  0.28541745    -0.13100
C2268       C  0.06997792  0.06816104  0.29898587    -0.11400
C2269       C  0.05961355  0.05044763  0.25667651     0.01400
C2270       C  0.05166849  0.04553978  0.24472506    -0.31400
C2271       C  0.09688276  0.07664673  0.31167645     0.02800
C2272       C  0.10488746  0.08294993  0.32290545    -0.33100
H2273       H  0.10930088  0.06548771  0.28247419     0.13800
H2274       H  0.09311565  0.05409949  0.25856056     0.13600
H2275       H  0.04725509  0.06078284  0.28627259     0.13500
H2276       H  0.06345140  0.07215982  0.31019781     0.12500
C2277       C  0.95171449  0.08703977  0.18229739     0.18900
C2278       C  0.94874848  0.07651463  0.19606479    -0.10300
C2279       C  0.96191612  0.06722540  0.20300633    -0.11100
C2280       C  0.97806226  0.06844605  0.19617686     0.20400
C2281       C  0.98100162  0.07902147  0.18246206    -0.13100
C2282       C  0.96786809  0.08828588  0.17553859    -0.11400
C2283       C  0.99168006  0.05881450  0.20300129     0.01400
C2284       C  0.00377058  0.05115748  0.20780664    -0.31400
C2285       C  0.93822079  0.09631088  0.17477041     0.02800
C2286       C  0.92748656  0.10403769  0.16746929    -0.33100
H2287       H  0.93628247  0.07542713  0.20134728     0.13800
H2288       H  0.95950512  0.05906756  0.21360325     0.13600
H2289       H  0.99343067  0.08004262  0.17707580     0.13500
H2290       H  0.97028295  0.09634392  0.16486172     0.12500
C2291       C  0.05788994  0.98437503  0.17813774     0.18900
C2292       C  0.07046879  0.97412396  0.18481607    -0.10300
C2293       C  0.07743064  0.96138467  0.17502235    -0.11100
C2294       C  0.07184354  0.95883711  0.15850712     0.20400
C2295       C  0.05918577  0.96901395  0.15185257    -0.13100
C2296       C  0.05221810  0.98176443  0.16165368    -0.11400
C2297       C  0.07934030  0.94598827  0.14834730     0.01400
C2298       C  0.08609486  0.93533189  0.14005839    -0.31400
C2299       C  0.05098993  0.99767492  0.18815285     0.02800
C2300       C  0.04550254  0.00885041  0.19669685    -0.33100
H2301       H  0.07495188  0.97604217  0.19754232     0.13800
H2302       H  0.08722912  0.95360093  0.18027988     0.13600
H2303       H  0.05479345  0.96716175  0.13908660     0.13500
H2304       H  0.04250255  0.98962869  0.15636493     0.12500
C2305       C  0.16994615  0.29402339  0.17196503     0.18900
C2306       C  0.18650724  0.28963221  0.16818080    -0.10300
C2307       C  0.19407383  0.27613678  0.17641392    -0.11100
C2308       C  0.18510687  0.26699226  0.18846694     0.20400
C2309       C  0.16862990  0.27154208  0.19240623    -0.13100
C2310       C  0.16106579  0.28502692  0.18417305    -0.11400
C2311       C  0.19253173  0.25253183  0.19627199     0.01400
C2312       C  0.19852749  0.24000875  0.20221630    -0.31400
C2313       C  0.16189585  0.30741982  0.16300265     0.02800
C2314       C  0.15497272  0.31836347  0.15523578    -0.33100
H2315       H  0.19347548  0.29649256  0.15873755     0.13800
H2316       H  0.20680253  0.27269261  0.17322488     0.13600
H2317       H  0.16156302  0.26452496  0.20165743     0.13500
H2318       H  0.14824353  0.28830035  0.18716705     0.12500
C2319       C  0.08080438  0.29203594  0.07807664     0.18900
C2320       C  0.08375945  0.27603543  0.08466991    -0.10300
C2321       C  0.07674305  0.26188941  0.07690839    -0.11100
C2322       C  0.06675388  0.26369675  0.06252241     0.20400
C2323       C  0.06380089  0.27969781  0.05591887    -0.13100
C2324       C  0.07082444  0.29385494  0.06368577    -0.11400
C2325       C  0.05952470  0.24912962  0.05459336     0.01400
C2326       C  0.05350117  0.23680069  0.04814560    -0.31400
C2327       C  0.08812659  0.30651110  0.08607323     0.02800
C2328       C  0.09476739  0.31813985  0.09319439    -0.33100
H2329       H  0.09148166  0.27450785  0.09578805     0.13800
H2330       H  0.07909737  0.24956863  0.08211011     0.13600
H2331       H  0.05608914  0.28121800  0.04479623     0.13500
H2332       H  0.06849085  0.30617990  0.05848777     0.12500
C2333       C  0.08115783  0.17139529  0.94678497     0.18900
C2334       C  0.09101222  0.17871786  0.95945845    -0.10300
C2335       C  0.08341275  0.18518592  0.97384784    -0.11100
C2336       C  0.06594452  0.18432559  0.97561496     0.20400
C2337       C  0.05608407  0.17707815  0.96290152    -0.13100
C2338       C  0.06368564  0.17061521  0.94850457    -0.11400
C2339       C  0.05822093  0.19063546  0.99060180     0.01400
C2340       C  0.05219656  0.19585151  0.00341609    -0.31400
C2341       C  0.08900752  0.16423353  0.93227024     0.02800
C2342       C  0.09574419  0.15764061  0.92049540    -0.33100
H2343       H  0.10454427  0.17930633  0.95827064     0.13800
H2344       H  0.09114480  0.19073845  0.98363230     0.13600
H2345       H  0.04256907  0.17632587  0.96417133     0.13500
H2346       H  0.05597546  0.16490826  0.93879266     0.12500
C2347       C  0.95804759  0.16644716  0.08122350     0.18900
C2348       C  0.97407038  0.16164261  0.08662750    -0.10300
C2349       C  0.98832241  0.16767032  0.07835063    -0.11100
C2350       C  0.98658467  0.17850754  0.06463237     0.20400
C2351       C  0.97055765  0.18321529  0.05916735    -0.13100
C2352       C  0.95631123  0.17719419  0.06744472    -0.11400
C2353       C  0.00118948  0.18517943  0.05640250     0.01400
C2354       C  0.01308819  0.19147787  0.04951957    -0.31400
C2355       C  0.94344757  0.16051321  0.08998475     0.02800
C2356       C  0.93160689  0.15533004  0.09782149    -0.33100
H2357       H  0.97553511  0.15334152  0.09728776     0.13800
H2358       H  0.00065993  0.16399225  0.08270668     0.13600
H2359       H  0.96908815  0.19163011  0.04860011     0.13500
H2360       H  0.94397851  0.18099340  0.06318403     0.12500
C2361       C  0.06569648  0.19981048  0.78517639     0.18900
C2362       C  0.07936117  0.20685043  0.79384855    -0.10300
C2363       C  0.08759621  0.19759104  0.80624742    -0.11100
C2364       C  0.08215299  0.18129480  0.81003388     0.20400
C2365       C  0.06860592  0.17419041  0.80123486    -0.13100
C2366       C  0.06037416  0.18344585  0.78883693    -0.11400
C2367       C  0.09034214  0.17192749  0.82305241     0.01400
C2368       C  0.09719642  0.16390162  0.83385137    -0.31400
C2369       C  0.05638310  0.20977076  0.77342537     0.02800
C2370       C  0.04756618  0.21856400  0.76491604    -0.33100
H2371       H  0.08346336  0.21955965  0.79121641     0.13800
H2372       H  0.09806110  0.20318560  0.81299592     0.13600
H2373       H  0.06430574  0.16159399  0.80408474     0.13500
H2374       H  0.04971475  0.17795873  0.78230803     0.12500
C2375       C  0.94447696  0.32036308  0.69290282     0.18900
C2376       C  0.95294203  0.32948228  0.68049262    -0.10300
C2377       C  0.94388658  0.33842014  0.66845216    -0.11100
C2378       C  0.92632557  0.33825899  0.66876266     0.20400
C2379       C  0.91783684  0.32933989  0.68131657    -0.13100
C2380       C  0.92690546  0.32037735  0.69336900    -0.11400
C2381       C  0.91705220  0.34702700  0.65604503     0.01400
C2382       C  0.90919053  0.35438102  0.64544711    -0.31400
C2383       C  0.95390610  0.31025737  0.70445103     0.02800
C2384       C  0.96265427  0.30122223  0.71278739    -0.33100
H2385       H  0.96652772  0.32946149  0.67996914     0.13800
H2386       H  0.95055877  0.34527998  0.65879875     0.13600
H2387       H  0.90424564  0.32915177  0.68165557     0.13500
H2388       H  0.92024349  0.31327802  0.70285498     0.12500
C2389       C  0.93252917  0.32188097  0.50795833     0.18900
C2390       C  0.92873448  0.33887640  0.50571263    -0.10300
C2391       C  0.92121049  0.34794706  0.51867772    -0.11100
C2392       C  0.91747935  0.34004282  0.53392063     0.20400
C2393       C  0.92122498  0.32304065  0.53613943    -0.13100
C2394       C  0.92873844  0.31397446  0.52318167    -0.11400
C2395       C  0.90982394  0.34931867  0.54730974     0.01400
C2396       C  0.90331254  0.35672523  0.55873062    -0.31400
C2397       C  0.94045829  0.31258817  0.49473280     0.02800
C2398       C  0.94728135  0.30477255  0.48378134    -0.33100
H2399       H  0.93162917  0.34510357  0.49398501     0.13800
H2400       H  0.91834297  0.36109050  0.51684217     0.13600
H2401       H  0.91837394  0.31682107  0.54788335     0.13500
H2402       H  0.93163408  0.30084118  0.52504331     0.12500
C2403       C  0.93646717  0.22785475  0.43716619     0.18900
C2404       C  0.91929689  0.22532448  0.43995690    -0.10300
C2405       C  0.91127551  0.21101717  0.43359875    -0.11100
C2406       C  0.92040359  0.19918082  0.42444522     0.20400
C2407       C  0.93761079  0.20162493  0.42176663    -0.13100
C2408       C  0.94563991  0.21595171  0.42812461    -0.11400
C2409       C  0.91197819  0.18482155  0.41738840     0.01400
C2410       C  0.90458707  0.17320310  0.41103402    -0.31400
C2411       C  0.94448013  0.24291177  0.44318211     0.02800
C2412       C  0.95060978  0.25590047  0.44801863    -0.33100
H2413       H  0.91209045  0.23448851  0.44688789     0.13800
H2414       H  0.89794993  0.20926361  0.43567326     0.13600
H2415       H  0.94475625  0.19255957  0.41464519     0.13500
H2416       H  0.95891572  0.21782866  0.42585656     0.12500
C2417       C  0.04622315  0.32835037  0.41317176     0.18900
C2418       C  0.03440282  0.33834146  0.42137311    -0.10300
C2419       C  0.02081485  0.33085808  0.42954435    -0.11100
C2420       C  0.01901070  0.31336698  0.42952868     0.20400
C2421       C  0.03092782  0.30335750  0.42147096    -0.13100
C2422       C  0.04453033  0.31084684  0.41329993    -0.11400
C2423       C  0.00472051  0.30577332  0.43746062     0.01400
C2424       C  0.99245759  0.29978041  0.44393481    -0.31400
C2425       C  0.05987765  0.33609525  0.40435373     0.02800
C2426       C  0.07114402  0.34272736  0.39679393    -0.33100
H2427       H  0.03561358  0.35189123  0.42131912     0.13800
H2428       H  0.01164679  0.33869613  0.43573036     0.13600
H2429       H  0.02962080  0.28981740  0.42138207     0.13500
H2430       H  0.05362110  0.30302898  0.40697433     0.12500
C2431       C  0.92915892  0.55590991  0.33548088     0.18900
C2432       C  0.92855505  0.53982800  0.34254052    -0.10300
C2433       C  0.93523097  0.52615056  0.33385429    -0.11100
C2434       C  0.94254569  0.52846984  0.31804881     0.20400
C2435       C  0.94313940  0.54455268  0.31096850    -0.13100
C2436       C  0.93646116  0.55824413  0.31966592    -0.11400
C2437       C  0.94953245  0.51436013  0.30921431     0.01400
C2438       C  0.95540911  0.50234166  0.30217871    -0.31400
C2439       C  0.92210479  0.56991476  0.34441451     0.02800
C2440       C  0.91582786  0.58134142  0.35206663    -0.33100
H2441       H  0.92290693  0.53786510  0.35473851     0.13800
H2442       H  0.93470407  0.51378332  0.33946182     0.13600
H2443       H  0.94877049  0.54650336  0.29876227     0.13500
H2444       H  0.93697085  0.57061568  0.31406760     0.12500
C2445       C  0.91803178  0.42517415  0.21070469     0.18900
C2446       C  0.92088619  0.44244941  0.20895041    -0.10300
C2447       C  0.92977800  0.45128895  0.22134744    -0.11100
C2448       C  0.93586555  0.44287990  0.23553720     0.20400
C2449       C  0.93299154  0.42560637  0.23728925    -0.13100
C2450       C  0.92409977  0.41677419  0.22490311    -0.11400
C2451       C  0.94494141  0.45192415  0.24838058     0.01400
C2452       C  0.95237819  0.45903170  0.25956042    -0.31400
C2453       C  0.90903244  0.41602707  0.19789420     0.02800
C2454       C  0.90174567  0.40812057  0.18715946    -0.33100
H2455       H  0.91626598  0.44906089  0.19800928     0.13800
H2456       H  0.93190432  0.46464390  0.21987276     0.13600
H2457       H  0.93761832  0.41897982  0.24821945     0.13500
H2458       H  0.92197724  0.40341640  0.22637998     0.12500
C2459       C  0.02344661  0.44263017  0.31317278     0.18900
C2460       C  0.03442623  0.43430143  0.30232072    -0.10300
C2461       C  0.04815401  0.42553560  0.30880221    -0.11100
C2462       C  0.05096622  0.42505733  0.32616877     0.20400
C2463       C  0.04002126  0.43342933  0.33702530    -0.13100
C2464       C  0.02629381  0.44220168  0.33054281    -0.11400
C2465       C  0.06470679  0.41551613  0.33290328     0.01400
C2466       C  0.07561264  0.40699991  0.33897298    -0.31400
C2467       C  0.00917446  0.45141658  0.30647444     0.02800
C2468       C  0.99713764  0.45848252  0.30066649    -0.33100
H2469       H  0.03232470  0.43451467  0.28887377     0.13800
H2470       H  0.05648314  0.41903516  0.30030116     0.13600
H2471       H  0.04202514  0.43306019  0.35048470     0.13500
H2472       H  0.01786794  0.44855851  0.33905725     0.12500
C2473       C  0.82428074  0.43242401  0.54125254     0.18900
C2474       C  0.81220115  0.44437873  0.54552658    -0.10300
C2475       C  0.80398157  0.45340341  0.53292363    -0.11100
C2476       C  0.80782840  0.45048611  0.51602273     0.20400
C2477       C  0.81987118  0.43849107  0.51176281    -0.13100
C2478       C  0.82808348  0.42947875  0.52435207    -0.11400
C2479       C  0.79951339  0.45976678  0.50299426     0.01400
C2480       C  0.79300135  0.46713240  0.49152158    -0.31400
C2481       C  0.83298556  0.42334613  0.55415914     0.02800
C2482       C  0.84075512  0.41570736  0.56462505    -0.33100
H2483       H  0.80920003  0.44675790  0.55856887     0.13800
H2484       H  0.79468718  0.46265324  0.53634330     0.13600
H2485       H  0.82293412  0.43614458  0.49872742     0.13500
H2486       H  0.83743075  0.42028019  0.52092467     0.12500
C2487       C  0.83287532  0.56167845  0.42341495     0.18900
C2488       C  0.82076686  0.56514493  0.43562226    -0.10300
C2489       C  0.81095897  0.55212733  0.44218997    -0.11100
C2490       C  0.81324403  0.53563630  0.43655231     0.20400
C2491       C  0.82531954  0.53220239  0.42431064    -0.13100
C2492       C  0.83511397  0.54520230  0.41775217    -0.11400
C2493       C  0.80348502  0.52216065  0.44354123     0.01400
C2494       C  0.79582109  0.51055312  0.44947915    -0.31400
C2495       C  0.84303327  0.57494065  0.41661894     0.02800
C2496       C  0.85183287  0.58555181  0.41040096    -0.33100
H2497       H  0.81894702  0.57785915  0.44006781     0.13800
H2498       H  0.80167638  0.55489298  0.45168793     0.13600
H2499       H  0.82720799  0.51948498  0.41990328     0.13500
H2500       H  0.84444567  0.54241387  0.40830516     0.12500
C2501       C  0.72790189  0.45341356  0.42946146     0.18900
C2502       C  0.73250909  0.44132665  0.41757948    -0.10300
C2503       C  0.72018521  0.43277053  0.40836818    -0.11100
C2504       C  0.70319905  0.43627048  0.41098945     0.20400
C2505       C  0.69856979  0.44846245  0.42277059    -0.13100
C2506       C  0.71091318  0.45703115  0.43199848    -0.11400
C2507       C  0.69057866  0.42694093  0.40195627     0.01400
C2508       C  0.68025361  0.41852627  0.39466977    -0.31400
C2509       C  0.74066872  0.46191622  0.43909599     0.02800
C2510       C  0.75192050  0.46857869  0.44679893    -0.33100
H2511       H  0.74561204  0.43844078  0.41552507     0.13800
H2512       H  0.72388390  0.42332761  0.39932629     0.13600
H2513       H  0.68545427  0.45121938  0.42491913     0.13500
H2514       H  0.70722429  0.46636055  0.44115885     0.12500
C2515       C  0.81067556  0.22044236  0.31754963     0.18900
C2516       C  0.80332108  0.21402196  0.33215078    -0.10300
C2517       C  0.81100126  0.20089395  0.34081476    -0.11100
C2518       C  0.82605245  0.19415860  0.33489326     0.20400
C2519       C  0.83334256  0.20048769  0.32021708    -0.13100
C2520       C  0.82566328  0.21361996  0.31155299    -0.11400
C2521       C  0.83421745  0.18102049  0.34405784     0.01400
C2522       C  0.84146421  0.17028044  0.35177286    -0.31400
C2523       C  0.80320859  0.23447649  0.30914662     0.02800
C2524       C  0.79731263  0.24674790  0.30268148    -0.33100
H2525       H  0.79177665  0.21928615  0.33692712     0.13800
H2526       H  0.80530266  0.19610642  0.35218230     0.13600
H2527       H  0.84501244  0.19537958  0.31557466     0.13500
H2528       H  0.83148917  0.21856881  0.30031866     0.12500
C2529       C  0.73305560  0.30980920  0.31730738     0.18900
C2530       C  0.73703661  0.32471824  0.32580983    -0.10300
C2531       C  0.72428613  0.33449186  0.33267829    -0.11100
C2532       C  0.70751482  0.32939218  0.33105272     0.20400
C2533       C  0.70351439  0.31447865  0.32255148    -0.13100
C2534       C  0.71627837  0.30469252  0.31567872    -0.11400
C2535       C  0.69444188  0.33950155  0.33807168     0.01400
C2536       C  0.68349790  0.34802018  0.34393664    -0.31400
C2537       C  0.74621662  0.29995331  0.31008288     0.02800
C2538       C  0.75762323  0.29231380  0.30390710    -0.33100
H2539       H  0.74997648  0.32879409  0.32709067     0.13800
H2540       H  0.72748901  0.34601364  0.33922174     0.13600
H2541       H  0.69056385  0.31045195  0.32122229     0.13500
H2542       H  0.71308062  0.29320037  0.30908291     0.12500
C2543       C  0.83244268  0.32348583  0.21079118     0.18900
C2544       C  0.81864711  0.33085963  0.21866856    -0.10300
C2545       C  0.81061476  0.32255086  0.23182440    -0.11100
C2546       C  0.81637193  0.30685589  0.23712085     0.20400
C2547       C  0.83016678  0.29947064  0.22923641    -0.13100
C2548       C  0.83820481  0.30778604  0.21607111    -0.11400
C2549       C  0.80816313  0.29839740  0.25070197     0.01400
C2550       C  0.80120758  0.29153963  0.26219080    -0.31400
C2551       C  0.84077578  0.33217458  0.19745115     0.02800
C2552       C  0.84768805  0.33991500  0.18651119    -0.33100
H2553       H  0.81414632  0.34302417  0.21467286     0.13800
H2554       H  0.79996319  0.32835642  0.23787548     0.13600
H2555       H  0.83470514  0.28733829  0.23328161     0.13500
H2556       H  0.84889972  0.30202259  0.21005718     0.12500
C2557       C  0.07073636  0.30346475  0.68277171     0.18900
C2558       C  0.08542228  0.30974915  0.69027886    -0.10300
C2559       C  0.09428677  0.32288834  0.68270422    -0.11100
C2560       C  0.08846345  0.32982591  0.66763520     0.20400
C2561       C  0.07390303  0.32340040  0.66001727    -0.13100
C2562       C  0.06504331  0.31026425  0.66758687    -0.11400
C2563       C  0.09737654  0.34356307  0.66002996     0.01400
C2564       C  0.10495779  0.35484797  0.65338073    -0.31400
C2565       C  0.06064395  0.29121988  0.69139484     0.02800
C2566       C  0.05097158  0.28279695  0.69941109    -0.33100
H2567       H  0.08981911  0.30473106  0.70212958     0.13800
H2568       H  0.10554122  0.32776699  0.68868583     0.13600
H2569       H  0.06930206  0.32867068  0.64835520     0.13500
H2570       H  0.05358764  0.30564352  0.66178781     0.12500
C2571       C  0.95460609  0.58038121  0.65789178     0.18900
C2572       C  0.95182496  0.56568132  0.66712021    -0.10300
C2573       C  0.96501194  0.55837362  0.67609290    -0.11100
C2574       C  0.98101696  0.56574540  0.67585969     0.20400
C2575       C  0.98382735  0.58035159  0.66649420    -0.13100
C2576       C  0.97064908  0.58765347  0.65752607    -0.11400
C2577       C  0.99450178  0.55853136  0.68542744     0.01400
C2578       C  0.00600156  0.55291560  0.69347073    -0.31400
C2579       C  0.94097766  0.58818844  0.64903775     0.02800
C2580       C  0.92972873  0.59507064  0.64165866    -0.33100
H2581       H  0.93946072  0.55996474  0.66748305     0.13800
H2582       H  0.96270775  0.54707968  0.68329736     0.13600
H2583       H  0.99615651  0.58615261  0.66623183     0.13500
H2584       H  0.97292725  0.59902233  0.65042770     0.12500
C2585       C  0.07064076  0.49041317  0.68587277     0.18900
C2586       C  0.08419213  0.49463462  0.67551661    -0.10300
C2587       C  0.09369258  0.48200233  0.66801025    -0.11100
C2588       C  0.08967793  0.46510944  0.67084932     0.20400
C2589       C  0.07617464  0.46088604  0.68125648    -0.13100
C2590       C  0.06667037  0.47351852  0.68875875    -0.11400
C2591       C  0.09914769  0.45212960  0.66277156     0.01400
C2592       C  0.10678600  0.44132344  0.65554257    -0.31400
C2593       C  0.06067709  0.50341951  0.69330820     0.02800
C2594       C  0.05233859  0.51451790  0.69918698    -0.33100
H2595       H  0.08734095  0.50766514  0.67317642     0.13800
H2596       H  0.10407625  0.48539220  0.65992831     0.13600
H2597       H  0.07294197  0.44785465  0.68347805     0.13500
H2598       H  0.05619477  0.47012551  0.69671644     0.12500
C2599       C  0.05415854  0.57178039  0.76911792     0.18900
C2600       C  0.05184899  0.58900196  0.77172953    -0.10300
C2601       C  0.05877716  0.59679650  0.78591795    -0.11100
C2602       C  0.06802705  0.58738715  0.79751830     0.20400
C2603       C  0.07007799  0.57012084  0.79505504    -0.13100
C2604       C  0.06315550  0.56233179  0.78087769    -0.11400
C2605       C  0.07606070  0.59555501  0.81151443     0.01400
C2606       C  0.08337781  0.60249704  0.82284313    -0.31400
C2607       C  0.04785418  0.56387808  0.75411195     0.02800
C2608       C  0.04316898  0.55705340  0.74141145    -0.33100
H2609       H  0.04493705  0.59642440  0.76268987     0.13800
H2610       H  0.05717145  0.61017263  0.78769509     0.13600
H2611       H  0.07725456  0.56275185  0.80393126     0.13500
H2612       H  0.06503473  0.54901424  0.77895130     0.12500
C2613       C  0.30019624  0.58609459  0.56561982     0.18900
C2614       C  0.29924886  0.56876776  0.56271444    -0.10300
C2615       C  0.28629281  0.56208153  0.55280279    -0.11100
C2616       C  0.27422037  0.57268463  0.54572735     0.20400
C2617       C  0.27539191  0.59005648  0.54830571    -0.13100
C2618       C  0.28835306  0.59674534  0.55822551    -0.11400
C2619       C  0.26007756  0.56562354  0.53679391     0.01400
C2620       C  0.24780048  0.55936138  0.53037801    -0.31400
C2621       C  0.31296454  0.59285770  0.57661417     0.02800
C2622       C  0.32348760  0.59847936  0.58604758    -0.33100
H2623       H  0.30833321  0.56041089  0.56835736     0.13800
H2624       H  0.28547912  0.54862723  0.55096085     0.13600
H2625       H  0.26609422  0.59837527  0.54296517     0.13500
H2626       H  0.28895808  0.61016282  0.56038364     0.12500
C2627       C  0.19033606  0.49245141  0.55240307     0.18900
C2628       C  0.17580896  0.49533081  0.56181616    -0.10300
C2629       C  0.16864147  0.48232788  0.57120012    -0.11100
C2630       C  0.17597256  0.46638839  0.57121174     0.20400
C2631       C  0.19045564  0.46349126  0.56175089    -0.13100
C2632       C  0.19762406  0.47649331  0.55236972    -0.11400
C2633       C  0.16871808  0.45305723  0.58101234     0.01400
C2634       C  0.16258193  0.44199766  0.58933198    -0.31400
C2635       C  0.19784225  0.50590309  0.54293711     0.02800
C2636       C  0.20412197  0.51731368  0.53521270    -0.33100
H2637       H  0.17007307  0.50762160  0.56194616     0.13800
H2638       H  0.15744203  0.48470746  0.57847684     0.13600
H2639       H  0.19622438  0.45121553  0.56167534     0.13500
H2640       H  0.20886074  0.47412549  0.54515107     0.12500
C2641       C  0.29939393  0.66568512  0.67314575     0.18900
C2642       C  0.30340793  0.67743519  0.68566751    -0.10300
C2643       C  0.29064414  0.68475135  0.69514844    -0.11100
C2644       C  0.27386585  0.68029990  0.69212282     0.20400
C2645       C  0.26989461  0.66845497  0.67969521    -0.13100
C2646       C  0.28263461  0.66115952  0.67022545    -0.11400
C2647       C  0.26060324  0.68824532  0.70126915     0.01400
C2648       C  0.24883787  0.69487647  0.70792380    -0.31400
C2649       C  0.31240486  0.65824768  0.66324973     0.02800
C2650       C  0.32313364  0.65173292  0.65492386    -0.33100
H2651       H  0.31635279  0.68098865  0.68802186     0.13800
H2652       H  0.29382680  0.69394809  0.70469706     0.13600
H2653       H  0.25694832  0.66498200  0.67722843     0.13500
H2654       H  0.27942214  0.65207139  0.66058031     0.12500
C2655       C  0.16759091  0.67207700  0.80083617     0.18900
C2656       C  0.16015548  0.67657850  0.78555194    -0.10300
C2657       C  0.17005901  0.68282584  0.77252939    -0.11100
C2658       C  0.18742836  0.68457692  0.77474018     0.20400
C2659       C  0.19489597  0.67996624  0.78998747    -0.13100
C2660       C  0.18497789  0.67371396  0.80302858    -0.11400
C2661       C  0.19744871  0.69122614  0.76133765     0.01400
C2662       C  0.20498291  0.69691318  0.74956037    -0.31400
C2663       C  0.15738142  0.66557828  0.81415468     0.02800
C2664       C  0.14870994  0.65965863  0.82499893    -0.33100
H2665       H  0.14672845  0.67527654  0.78371902     0.13800
H2666       H  0.16418092  0.68633498  0.76076650     0.13600
H2667       H  0.20832477  0.68125204  0.79179932     0.13500
H2668       H  0.19083669  0.67018543  0.81479352     0.12500
C2669       C  0.16986160  0.78491424  0.67112302     0.18900
C2670       C  0.17276312  0.76968459  0.66283589    -0.10300
C2671       C  0.18188654  0.75702635  0.67081204    -0.11100
C2672       C  0.18814191  0.75956848  0.68709614     0.20400
C2673       C  0.18529607  0.77482325  0.69534165    -0.13100
C2674       C  0.17618092  0.78747236  0.68737040    -0.11400
C2675       C  0.19717118  0.74644671  0.69551269     0.01400
C2676       C  0.20437575  0.73546171  0.70294526    -0.31400
C2677       C  0.16042752  0.79791909  0.66297827     0.02800
C2678       C  0.15264346  0.80889459  0.65612928    -0.33100
H2679       H  0.16793909  0.76759095  0.65026043     0.13800
H2680       H  0.18398615  0.74526051  0.66433740     0.13600
H2681       H  0.19004819  0.77690008  0.70794621     0.13500
H2682       H  0.17402131  0.79920923  0.69387762     0.12500
C2683       C  0.18745045  0.57198029  0.46398342     0.18900
C2684       C  0.18818565  0.56548949  0.44763257    -0.10300
C2685       C  0.18042923  0.57401762  0.43437911    -0.11100
C2686       C  0.17192368  0.58905678  0.43744149     0.20400
C2687       C  0.17113089  0.59548039  0.45379435    -0.13100
C2688       C  0.17887129  0.58696603  0.46702515    -0.11400
C2689       C  0.16400929  0.59793728  0.42386606     0.01400
C2690       C  0.15725250  0.60547349  0.41262582    -0.31400
C2691       C  0.19571650  0.56354291  0.47765062     0.02800
C2692       C  0.20265844  0.55723370  0.48952688    -0.33100
H2693       H  0.19480643  0.55392383  0.44512925     0.13800
H2694       H  0.18110286  0.56893419  0.42177323     0.13600
H2695       H  0.16457744  0.60708573  0.45630135     0.13500
H2696       H  0.17824457  0.59210990  0.47960838     0.12500
C2697       C  0.08158665  0.68471124  0.43163241     0.18900
C2698       C  0.06441810  0.68104273  0.43282906    -0.10300
C2699       C  0.05503173  0.68761195  0.44606136    -0.11100
C2700       C  0.06278630  0.69787062  0.45813180     0.20400
C2701       C  0.07986941  0.70188496  0.45669988    -0.13100
C2702       C  0.08925998  0.69530776  0.44346604    -0.11400
C2703       C  0.05353297  0.70332314  0.47257559     0.01400
C2704       C  0.04649894  0.70721667  0.48534414    -0.31400
C2705       C  0.09145249  0.67689802  0.41878558     0.02800
C2706       C  0.09950707  0.66958234  0.40834583    -0.33100
H2707       H  0.05838622  0.67281903  0.42375816     0.13800
H2708       H  0.04185352  0.68437168  0.44710740     0.13600
H2709       H  0.08600171  0.70974512  0.46602331     0.13500
H2710       H  0.10254264  0.69817186  0.44267127     0.12500
C2711       C  0.97999214  0.68294485  0.54416311     0.18900
C2712       C  0.96342677  0.68688903  0.53977553    -0.10300
C2713       C  0.95000495  0.67929123  0.54820433    -0.11100
C2714       C  0.95308555  0.66772387  0.56107099     0.20400
C2715       C  0.96965039  0.66377180  0.56544210    -0.13100
C2716       C  0.98306339  0.67136146  0.55701657    -0.11400
C2717       C  0.93931989  0.65991939  0.56983868     0.01400
C2718       C  0.92817789  0.65310659  0.57752412    -0.31400
C2719       C  0.99383500  0.69106318  0.53580232     0.02800
C2720       C  0.00558712  0.69817851  0.52940918    -0.33100
H2721       H  0.96089497  0.69587577  0.52990817     0.13800
H2722       H  0.93725476  0.68245646  0.54472559     0.13600
H2723       H  0.97218837  0.65486233  0.57538119     0.13500
H2724       H  0.99581079  0.66826124  0.56057100     0.12500
C2725       C  0.06513824  0.76365290  0.55318561     0.18900
C2726       C  0.06987074  0.76058566  0.56984229    -0.10300
C2727       C  0.07810854  0.77305694  0.57911957    -0.11100
C2728       C  0.08163194  0.78862213  0.57176600     0.20400
C2729       C  0.07711648  0.79162603  0.55503107    -0.13100
C2730       C  0.06887882  0.77913914  0.54574114    -0.11400
C2731       C  0.08950278  0.80158131  0.58158517     0.01400
C2732       C  0.09587707  0.81215639  0.59036783    -0.31400
C2733       C  0.05629863  0.75097084  0.54380858     0.02800
C2734       C  0.04899449  0.74033469  0.53585462    -0.33100
H2735       H  0.06706512  0.74863150  0.57568398     0.13800
H2736       H  0.08157315  0.77063557  0.59205740     0.13600
H2737       H  0.07980220  0.80363658  0.54924837     0.13500
H2738       H  0.06529625  0.78159838  0.53284357     0.12500
C2739       C  0.96619541  0.19555380  0.67624945     0.18900
C2740       C  0.95780275  0.20294867  0.66269074    -0.10300
C2741       C  0.94504472  0.19417380  0.65431778    -0.11100
C2742       C  0.94059104  0.17798016  0.65949884     0.20400
C2743       C  0.94927008  0.17038395  0.67277449    -0.13100
C2744       C  0.96203665  0.17917895  0.68117293    -0.11400
C2745       C  0.92684241  0.16937844  0.65146111     0.01400
C2746       C  0.91542571  0.16212263  0.64458148    -0.31400
C2747       C  0.97768908  0.20547552  0.68613006     0.02800
C2748       C  0.98527190  0.21498106  0.69521117    -0.33100
H2749       H  0.96079153  0.21566911  0.65890745     0.13800
H2750       H  0.93841858  0.20014298  0.64405615     0.13600
H2751       H  0.94592162  0.15784504  0.67685565     0.13500
H2752       H  0.96831688  0.17341368  0.69176461     0.12500
C2753       C  0.67538533  0.30157069  0.65643944     0.18900
C2754       C  0.67050557  0.29675080  0.67262246    -0.10300
C2755       C  0.67792454  0.28284043  0.68028479    -0.11100
C2756       C  0.69023626  0.27369317  0.67178605     0.20400
C2757       C  0.69513522  0.27854799  0.65562406    -0.13100
C2758       C  0.68772256  0.29244844  0.64796898    -0.11400
C2759       C  0.69779287  0.25929603  0.67958095     0.01400
C2760       C  0.70419619  0.24719550  0.68595735    -0.31400
C2761       C  0.66749274  0.31559646  0.64832780     0.02800
C2762       C  0.66065550  0.32691281  0.64102417    -0.33100
H2763       H  0.66093168  0.30367942  0.67926153     0.13800
H2764       H  0.67403230  0.27918900  0.69278138     0.13600
H2765       H  0.70463050  0.27156234  0.64893143     0.13500
H2766       H  0.69154296  0.29603028  0.63542933     0.12500
C2767       C  0.69044360  0.18751384  0.75350743     0.18900
C2768       C  0.69967991  0.18563971  0.76839080    -0.10300
C2769       C  0.69242870  0.17774708  0.78228130    -0.11100
C2770       C  0.67591107  0.17169106  0.78134679     0.20400
C2771       C  0.66670754  0.17345862  0.76642690    -0.13100
C2772       C  0.67395840  0.18135622  0.75253506    -0.11400
C2773       C  0.66839109  0.16369752  0.79567490     0.01400
C2774       C  0.66184950  0.15685498  0.80747139    -0.31400
C2775       C  0.69783563  0.19588664  0.73932032     0.02800
C2776       C  0.70414342  0.20296680  0.72753904    -0.33100
H2777       H  0.71243944  0.19034178  0.76927632     0.13800
H2778       H  0.69966267  0.17641993  0.79374590     0.13600
H2779       H  0.65393291  0.16878968  0.76556107     0.13500
H2780       H  0.66670613  0.18272421  0.74108694     0.12500
C2781       C  0.80342051  0.17630881  0.65960273     0.18900
C2782       C  0.78864599  0.16727264  0.66274976    -0.10300
C2783       C  0.77490603  0.17526054  0.67001275    -0.11100
C2784       C  0.77586679  0.19232738  0.67415296     0.20400
C2785       C  0.79068049  0.20136965  0.67110072    -0.13100
C2786       C  0.80444970  0.19336405  0.66382789    -0.11400
C2787       C  0.76152848  0.20048303  0.68132699     0.01400
C2788       C  0.74906105  0.20661956  0.68716848    -0.31400
C2789       C  0.81734001  0.16806498  0.65176683     0.02800
C2790       C  0.82853596  0.16069645  0.64487592    -0.33100
H2791       H  0.78772121  0.15408921  0.65949804     0.13800
H2792       H  0.76350750  0.16816164  0.67231100     0.13600
H2793       H  0.79154483  0.21457893  0.67424834     0.13500
H2794       H  0.81582332  0.20046295  0.66141570     0.12500
C2795       C  0.45079343  0.17546969  0.58847621     0.18900
C2796       C  0.46722961  0.16945711  0.58948735    -0.10300
C2797       C  0.48013921  0.17778480  0.58105794    -0.11100
C2798       C  0.47664914  0.19214955  0.57159710     0.20400
C2799       C  0.46020979  0.19820429  0.57061219    -0.13100
C2800       C  0.44727901  0.18986077  0.57905199    -0.11400
C2801       C  0.48993492  0.20033783  0.56260589     0.01400
C2802       C  0.50152277  0.20624924  0.55494459    -0.31400
C2803       C  0.43753173  0.16661038  0.59681510     0.02800
C2804       C  0.42654255  0.15868878  0.60348775    -0.33100
H2805       H  0.47003373  0.15829486  0.59669780     0.13800
H2806       H  0.49280779  0.17297490  0.58182524     0.13600
H2807       H  0.45739076  0.20926565  0.56325862     0.13500
H2808       H  0.43457074  0.19454491  0.57815400     0.12500
C2809       C  0.57062873  0.15786518  0.46361980     0.18900
C2810       C  0.57931401  0.16112045  0.47861195    -0.10300
C2811       C  0.57201950  0.17111286  0.49099966    -0.11100
C2812       C  0.55603210  0.17787119  0.48841076     0.20400
C2813       C  0.54733544  0.17457732  0.47343763    -0.13100
C2814       C  0.55463108  0.16458980  0.46105026    -0.11400
C2815       C  0.54862387  0.18829446  0.50105227     0.01400
C2816       C  0.54261047  0.19708750  0.51171807    -0.31400
C2817       C  0.57820598  0.14779855  0.45079806     0.02800
C2818       C  0.58475879  0.13959617  0.43997750    -0.33100
H2819       H  0.59170955  0.15598687  0.48068733     0.13800
H2820       H  0.57884251  0.17361098  0.50254189     0.13600
H2821       H  0.53497171  0.17976766  0.47132701     0.13500
H2822       H  0.54784452  0.16215650  0.44947381     0.12500
C2823       C  0.58151172  0.30110260  0.56813603     0.18900
C2824       C  0.58174781  0.28602863  0.57714716    -0.10300
C2825       C  0.57267154  0.27213690  0.57130045    -0.11100
C2826       C  0.56331901  0.27326940  0.55642408     0.20400
C2827       C  0.56319452  0.28829547  0.54732042    -0.13100
C2828       C  0.57228137  0.30220699  0.55317667    -0.11400
C2829       C  0.55377601  0.25902550  0.55064760     0.01400
C2830       C  0.54602344  0.24676158  0.54625185    -0.31400
C2831       C  0.59060599  0.31541661  0.57443302     0.02800
C2832       C  0.59841712  0.32689397  0.58055122    -0.33100
H2833       H  0.58886289  0.28505415  0.58872602     0.13800
H2834       H  0.57286410  0.26056199  0.57841445     0.13600
H2835       H  0.55601388  0.28927756  0.53578672     0.13500
H2836       H  0.57203678  0.31381387  0.54612199     0.12500
C2837       C  0.68823096  0.05075933  0.48448161     0.18900
C2838       C  0.67240601  0.04372210  0.48115353    -0.10300
C2839       C  0.66203935  0.05078143  0.46889574    -0.11100
C2840       C  0.66746824  0.06490190  0.45995084     0.20400
C2841       C  0.68345235  0.07169488  0.46299608    -0.13100
C2842       C  0.69382035  0.06463619  0.47525628    -0.11400
C2843       C  0.65646426  0.07274129  0.44803762     0.01400
C2844       C  0.64740815  0.07960339  0.43808619    -0.31400
C2845       C  0.69834933  0.04423138  0.49789699     0.02800
C2846       C  0.70618997  0.03888521  0.50965576    -0.33100
H2847       H  0.66796852  0.03299790  0.48824340     0.13800
H2848       H  0.64970678  0.04543068  0.46660637     0.13600
H2849       H  0.68776418  0.08260535  0.45611629     0.13500
H2850       H  0.70602993  0.07017425  0.47775830     0.12500
C2851       C  0.69289394  0.97270978  0.56765193     0.18900
C2852       C  0.70094829  0.96108499  0.57803834    -0.10300
C2853       C  0.69187351  0.94761844  0.58468702    -0.11100
C2854       C  0.67477984  0.94580319  0.58090981     0.20400
C2855       C  0.66674249  0.95744623  0.57056060    -0.13100
C2856       C  0.67579885  0.97088792  0.56392529    -0.11400
C2857       C  0.66531528  0.93226909  0.58795969     0.01400
C2858       C  0.65687753  0.92148642  0.59427085    -0.31400
C2859       C  0.70206849  0.98649627  0.56065846     0.02800
C2860       C  0.70888488  0.99828218  0.55417571    -0.33100
H2861       H  0.71417645  0.96243470  0.58097376     0.13800
H2862       H  0.69813561  0.93868167  0.59276990     0.13600
H2863       H  0.65349650  0.95615258  0.56767001     0.13500
H2864       H  0.66949322  0.97984841  0.55590124     0.12500
C2865       C  0.77824250  0.05733622  0.56173795     0.18900
C2866       C  0.78254632  0.07279191  0.55456522    -0.10300
C2867       C  0.79596703  0.08213334  0.56106946    -0.11100
C2868       C  0.80514131  0.07605464  0.57477387     0.20400
C2869       C  0.80099866  0.06047500  0.58181789    -0.13100
C2870       C  0.78755415  0.05111839  0.57530491    -0.11400
C2871       C  0.81842065  0.08608639  0.58190261     0.01400
C2872       C  0.82919243  0.09484711  0.58804392    -0.31400
C2873       C  0.76394074  0.04821043  0.55545157     0.02800
C2874       C  0.75159734  0.04122811  0.55008887    -0.33100
H2875       H  0.77539651  0.07771181  0.54409218     0.13800
H2876       H  0.79905287  0.09417732  0.55556018     0.13600
H2877       H  0.80800596  0.05568531  0.59244640     0.13500
H2878       H  0.78429601  0.03918531  0.58095762     0.12500
C2879       C  0.44885926  0.07362773  0.67130160     0.18900
C2880       C  0.44654436  0.06653918  0.68721931    -0.10300
C2881       C  0.45982217  0.05831125  0.69520155    -0.11100
C2882       C  0.47544554  0.05715674  0.68728257     0.20400
C2883       C  0.47773956  0.06425366  0.67136937    -0.13100
C2884       C  0.46448051  0.07247681  0.66340084    -0.11400
C2885       C  0.48922581  0.04890310  0.69548168     0.01400
C2886       C  0.50127189  0.04239137  0.70186769    -0.31400
C2887       C  0.43533190  0.08227537  0.66312194     0.02800
C2888       C  0.42441591  0.08995192  0.65605004    -0.33100
H2889       H  0.43452036  0.06740871  0.69345256     0.13800
H2890       H  0.45792957  0.05290564  0.70752599     0.13600
H2891       H  0.48978171  0.06347236  0.66515598     0.13500
H2892       H  0.46641347  0.07796626  0.65111677     0.12500
C2893       C  0.56407689  0.06100282  0.76535634     0.18900
C2894       C  0.58125768  0.06406575  0.76312271    -0.10300
C2895       C  0.59032777  0.07314820  0.77519343    -0.11100
C2896       C  0.58225861  0.07921498  0.78955199     0.20400
C2897       C  0.56510208  0.07606277  0.79184828    -0.13100
C2898       C  0.55602498  0.06698037  0.77976811    -0.11400
C2899       C  0.59157528  0.08873062  0.80185151     0.01400
C2900       C  0.59955505  0.09663509  0.81208095    -0.31400
C2901       C  0.55470402  0.05199569  0.75270844     0.02800
C2902       C  0.54713342  0.04471487  0.74173534    -0.33100
H2903       H  0.58760723  0.05952010  0.75201874     0.13800
H2904       H  0.60359098  0.07550443  0.77329936     0.13600
H2905       H  0.55874522  0.08068400  0.80291587     0.13500
H2906       H  0.54274321  0.06470157  0.78161395     0.12500
C2907       C  0.56062247  0.97588520  0.68438982     0.18900
C2908       C  0.57057444  0.97911863  0.67027743    -0.10300
C2909       C  0.57927819  0.96605114  0.66251856    -0.11100
C2910       C  0.57807289  0.94969423  0.66884461     0.20400
C2911       C  0.56798304  0.94643065  0.68284589    -0.13100
C2912       C  0.55928332  0.95949870  0.69060817    -0.11400
C2913       C  0.58732785  0.93630988  0.66111045     0.01400
C2914       C  0.59507464  0.92509370  0.65462042    -0.31400
C2915       C  0.55208365  0.98943174  0.69266499     0.02800
C2916       C  0.54530494  0.00101033  0.69958901    -0.33100
H2917       H  0.57170738  0.99174292  0.66536621     0.13800
H2918       H  0.58703275  0.96871382  0.65168984     0.13600
H2919       H  0.56694809  0.93382580  0.68782575     0.13500
H2920       H  0.55163227  0.95685552  0.70151324     0.12500
C2921       C  0.06960538  0.04735297  0.45724100     0.18900
C2922       C  0.08280426  0.03920063  0.44907705    -0.10300
C2923       C  0.09237985  0.04777973  0.43714089    -0.11100
C2924       C  0.08876012  0.06452511  0.43331335     0.20400
C2925       C  0.07577899  0.07276902  0.44172049    -0.13100
C2926       C  0.06620530  0.06419313  0.45365183    -0.11400
C2927       C  0.09803863  0.07312904  0.42046606     0.01400
C2928       C  0.10561403  0.08047945  0.40964378    -0.31400
C2929       C  0.05868672  0.03805785  0.46817487     0.02800
C2930       C  0.04866939  0.02972783  0.47584280    -0.33100
H2931       H  0.08543430  0.02613072  0.45165339     0.13800
H2932       H  0.10238659  0.04129007  0.43069947     0.13600
H2933       H  0.07287738  0.08571447  0.43883905     0.13500
H2934       H  0.05592954  0.07056224  0.45978243     0.12500
C2935       C  0.93854421  0.08046415  0.57039872     0.18900
C2936       C  0.95555864  0.08117229  0.57492194    -0.10300
C2937       C  0.96715807  0.07094343  0.56668999    -0.11100
C2938       C  0.96172381  0.06002528  0.55394201     0.20400
C2939       C  0.94473097  0.05943060  0.54940491    -0.13100
C2940       C  0.93317551  0.06961768  0.55760867    -0.11400
C2941       C  0.97327403  0.04903416  0.54563418     0.01400
C2942       C  0.98110817  0.03877716  0.53784468    -0.31400
C2943       C  0.92643594  0.09059196  0.57895384     0.02800
C2944       C  0.91571551  0.09858476  0.58587548    -0.33100
H2945       H  0.95981019  0.08951831  0.58483830     0.13800
H2946       H  0.98026797  0.07145508  0.57032018     0.13600
H2947       H  0.94039865  0.05099432  0.53959718     0.13500
H2948       H  0.92004515  0.06896580  0.55405341     0.12500
C2949       C  0.07855051  0.92364514  0.58162449     0.18900
C2950       C  0.06798988  0.93457793  0.59038315    -0.10300
C2951       C  0.05961170  0.94737360  0.58180653    -0.11100
C2952       C  0.06183890  0.94928967  0.56447048     0.20400
C2953       C  0.07264466  0.93854317  0.55580668    -0.13100
C2954       C  0.08099005  0.92576515  0.56436174    -0.11400
C2955       C  0.05201378  0.96119654  0.55518604     0.01400
C2956       C  0.04309980  0.96921752  0.54600331    -0.31400
C2957       C  0.08661323  0.91001913  0.59019607     0.02800
C2958       C  0.09349137  0.89853148  0.59716007    -0.33100
H2959       H  0.06602007  0.93303050  0.60374494     0.13800
H2960       H  0.05114998  0.95550395  0.58859394     0.13600
H2961       H  0.07432064  0.93980634  0.54237167     0.13500
H2962       H  0.08911900  0.91737663  0.55747606     0.12500
C2963       C  0.92422272  0.06170355  0.42536043     0.18900
C2964       C  0.91644974  0.05040188  0.43635258    -0.10300
C2965       C  0.92561054  0.03715030  0.44319656    -0.11100
C2966       C  0.94253363  0.03514192  0.43899423     0.20400
C2967       C  0.95025693  0.04638390  0.42790881    -0.13100
C2968       C  0.94110590  0.05963191  0.42107906    -0.11400
C2969       C  0.95238505  0.02252661  0.44717731     0.01400
C2970       C  0.96136625  0.01367792  0.45544561    -0.31400
C2971       C  0.91485596  0.07531492  0.41831747     0.02800
C2972       C  0.90692108  0.08640131  0.41190287    -0.33100
H2973       H  0.90338032  0.05190560  0.43970766     0.13800
H2974       H  0.91959465  0.02864923  0.45193763     0.13600
H2975       H  0.96339992  0.04506162  0.42476545     0.13500
H2976       H  0.94720585  0.06830877  0.41256927     0.12500
C2977       C  0.83108823  0.42581067  0.67730680     0.18900
C2978       C  0.81643056  0.41858863  0.68379706    -0.10300
C2979       C  0.80808262  0.42635015  0.69707067    -0.11100
C2980       C  0.81441564  0.44131242  0.70390725     0.20400
C2981       C  0.82929253  0.44832062  0.69767403    -0.13100
C2982       C  0.83764093  0.44055725  0.68440087    -0.11400
C2983       C  0.80466960  0.45046003  0.71588769     0.01400
C2984       C  0.79548915  0.45928446  0.72389660    -0.31400
C2985       C  0.83912781  0.41835531  0.66307543     0.02800
C2986       C  0.84588157  0.41207325  0.65115683    -0.33100
H2987       H  0.81127672  0.40718621  0.67836658     0.13800
H2988       H  0.79646032  0.42096784  0.70166437     0.13600
H2989       H  0.83415428  0.46001435  0.70273793     0.13500
H2990       H  0.84897209  0.44622710  0.67944200     0.12500
C2991       C  0.67596960  0.43723764  0.65907295     0.18900
C2992       C  0.67279740  0.43822862  0.67632106    -0.10300
C2993       C  0.68140478  0.44996763  0.68620261    -0.11100
C2994       C  0.69319626  0.46076918  0.67886571     0.20400
C2995       C  0.69609112  0.46005423  0.66154363    -0.13100
C2996       C  0.68746396  0.44830421  0.65164709    -0.11400
C2997       C  0.70317471  0.47159842  0.68937594     0.01400
C2998       C  0.71199757  0.47920656  0.69908382    -0.31400
C2999       C  0.66784003  0.42448363  0.64916567     0.02800
C3000       C  0.66099695  0.41356397  0.64117459    -0.33100
H3001       H  0.66393258  0.42971680  0.68216981     0.13800
H3002       H  0.67916510  0.45035382  0.69960879     0.13600
H3003       H  0.70527059  0.46828243  0.65577952     0.13500
H3004       H  0.68999385  0.44761825  0.63830793     0.12500
C3005       C  0.82030251  0.58001530  0.66298402     0.18900
C3006       C  0.80773538  0.58869703  0.67160174    -0.10300
C3007       C  0.79614395  0.57988373  0.68142919    -0.11100
C3008       C  0.79708871  0.56237507  0.68262138     0.20400
C3009       C  0.80956024  0.55371248  0.67387175    -0.13100
C3010       C  0.82113424  0.56250881  0.66407498    -0.11400
C3011       C  0.78583898  0.55324089  0.69336595     0.01400
C3012       C  0.77766628  0.54467892  0.70276678    -0.31400
C3013       C  0.83252743  0.58898905  0.65321060     0.02800
C3014       C  0.84305586  0.59606737  0.64497826    -0.33100
H3015       H  0.80700109  0.60224497  0.67084372     0.13800
H3016       H  0.78660178  0.58670583  0.68822185     0.13600
H3017       H  0.81045457  0.54018258  0.67478494     0.13500
H3018       H  0.83081407  0.55568499  0.65747773     0.12500
C3019       C  0.68957309  0.55978431  0.78948753     0.18900
C3020       C  0.69621379  0.57349788  0.79834008    -0.10300
C3021       C  0.68739242  0.58028153  0.81181542    -0.11100
C3022       C  0.67193865  0.57333272  0.81650290     0.20400
C3023       C  0.66513352  0.55979307  0.80748033    -0.13100
C3024       C  0.67397401  0.55299032  0.79398991    -0.11400
C3025       C  0.66315164  0.58016435  0.83058219     0.01400
C3026       C  0.65594968  0.58665494  0.84210579    -0.31400
C3027       C  0.69955011  0.55169481  0.77696369     0.02800
C3028       C  0.70889150  0.54378318  0.76823010    -0.33100
H3029       H  0.70836306  0.57869113  0.79506683     0.13800
H3030       H  0.69271234  0.59078377  0.81871355     0.13600
H3031       H  0.65315479  0.55437891  0.81101158     0.13500
H3032       H  0.66884763  0.54224318  0.78732883     0.12500
C3033       C  0.46116663  0.57333006  0.15751481     0.18900
C3034       C  0.46277461  0.57248644  0.17499645    -0.10300
C3035       C  0.47615071  0.56380548  0.18218091    -0.11100
C3036       C  0.48796282  0.55592944  0.17191318     0.20400
C3037       C  0.48630739  0.55665051  0.15440962    -0.13100
C3038       C  0.47290354  0.56535496  0.14720973    -0.11400
C3039       C  0.50192878  0.54749737  0.17948731     0.01400
C3040       C  0.51344423  0.54109619  0.18683568    -0.31400
C3041       C  0.44766358  0.58270220  0.15024109     0.02800
C3042       C  0.43642716  0.59093209  0.14447493    -0.33100
H3043       H  0.45377222  0.57864473  0.18305375     0.13800
H3044       H  0.47736066  0.56334275  0.19572910     0.13600
H3045       H  0.49541489  0.55062625  0.14637220     0.13500
H3046       H  0.47176436  0.56598536  0.13366388     0.12500
C3047       C  0.58494346  0.44225634  0.17119860     0.18900
C3048       C  0.56797245  0.44189400  0.17569648    -0.10300
C3049       C  0.56047460  0.45624242  0.18235892    -0.11100
C3050       C  0.56993193  0.47097136  0.18452719     0.20400
C3051       C  0.58693246  0.47128304  0.18015466    -0.13100
C3052       C  0.59442294  0.45694680  0.17349538    -0.11400
C3053       C  0.56209200  0.48588265  0.19080000     0.01400
C3054       C  0.55538172  0.49847915  0.19562564    -0.31400
C3055       C  0.59258126  0.42778995  0.16373947     0.02800
C3056       C  0.59952971  0.41631438  0.15686297    -0.33100
H3057       H  0.56052794  0.43060618  0.17390560     0.13800
H3058       H  0.54730014  0.45590749  0.18566160     0.13600
H3059       H  0.59433301  0.48263131  0.18173791     0.13500
H3060       H  0.60754248  0.45735791  0.16998561     0.12500
C3061       C  0.45617224  0.67372897  0.07196414     0.18900
C3062       C  0.46363410  0.66669498  0.05772278    -0.10300
C3063       C  0.47620297  0.67550752  0.04922174    -0.11100
C3064       C  0.48133408  0.69136796  0.05494667     0.20400
C3065       C  0.47382813  0.69841772  0.06915664    -0.13100
C3066       C  0.46125901  0.68960876  0.07765266    -0.11400
C3067       C  0.49454925  0.70022906  0.04646353     0.01400
C3068       C  0.50596068  0.70731204  0.03953451    -0.31400
C3069       C  0.44347353  0.66458281  0.08088994     0.02800
C3070       C  0.43300940  0.65692746  0.08864556    -0.33100
H3071       H  0.45980047  0.65439944  0.05325869     0.13800
H3072       H  0.48197883  0.66993255  0.03827223     0.13600
H3073       H  0.47775405  0.71065206  0.07370726     0.13500
H3074       H  0.45557459  0.69512572  0.08868021     0.12500
C3075       C  0.57546438  0.80563775  0.06871728     0.18900
C3076       C  0.58392080  0.79769782  0.05554434    -0.10300
C3077       C  0.57620354  0.78450294  0.04678157    -0.11100
C3078       C  0.56000280  0.77921317  0.05115718     0.20400
C3079       C  0.55146627  0.78730296  0.06417887    -0.13100
C3080       C  0.55918033  0.80049186  0.07293652    -0.11400
C3081       C  0.55245693  0.76499643  0.04285398     0.01400
C3082       C  0.54643162  0.75256169  0.03659403    -0.31400
C3083       C  0.58361482  0.81876029  0.07818862     0.02800
C3084       C  0.59041567  0.82955670  0.08642594    -0.33100
H3085       H  0.59652703  0.80156403  0.05219651     0.13800
H3086       H  0.58294308  0.77827910  0.03678161     0.13600
H3087       H  0.53896595  0.78325975  0.06771309     0.13500
H3088       H  0.55254270  0.80653142  0.08311648     0.12500
C3089       C  0.58141836  0.66778434  0.95124590     0.18900
C3090       C  0.57076218  0.66034624  0.96305842    -0.10300
C3091       C  0.56259268  0.67030727  0.97490127    -0.11100
C3092       C  0.56505730  0.68772787  0.97496048     0.20400
C3093       C  0.57571188  0.69517010  0.96313941    -0.13100
C3094       C  0.58387945  0.68520508  0.95128751    -0.11400
C3095       C  0.55676267  0.69787740  0.98727811     0.01400
C3096       C  0.54974326  0.70583112  0.99799157    -0.31400
C3097       C  0.58977149  0.65757634  0.93903765     0.02800
C3098       C  0.59680122  0.64928784  0.92859246    -0.33100
H3099       H  0.56878109  0.64688342  0.96310966     0.13800
H3100       H  0.55439119  0.66444088  0.98401593     0.13600
H3101       H  0.57771227  0.70862920  0.96310516     0.13500
H3102       H  0.59209501  0.69106052  0.94217796     0.12500
C3103       C  0.67170027  0.44128137  0.07601816     0.18900
C3104       C  0.68572395  0.44873865  0.08370553    -0.10300
C3105       C  0.69407057  0.46203176  0.07585652    -0.11100
C3106       C  0.68842914  0.46792198  0.06028023     0.20400
C3107       C  0.67442445  0.46043540  0.05255714    -0.13100
C3108       C  0.66606756  0.44712767  0.06041652    -0.11400
C3109       C  0.69682547  0.48184302  0.05241080     0.01400
C3110       C  0.70365979  0.49378145  0.04610194    -0.31400
C3111       C  0.66307002  0.42776997  0.08429654     0.02800
C3112       C  0.65622162  0.41664044  0.09190836    -0.33100
H3113       H  0.69015684  0.44431996  0.09578426     0.13800
H3114       H  0.70485460  0.46776115  0.08195663     0.13600
H3115       H  0.66993435  0.46493272  0.04053093     0.13500
H3116       H  0.65521461  0.44145856  0.05438398     0.12500
C3117       C  0.77137415  0.55368216  0.06199948     0.18900
C3118       C  0.76737794  0.56923190  0.06912540    -0.10300
C3119       C  0.77985460  0.57892598  0.07690172    -0.11100
C3120       C  0.79639306  0.57311604  0.07758331     0.20400
C3121       C  0.80041072  0.55755916  0.07047321    -0.13100
C3122       C  0.78791554  0.54785026  0.06268550    -0.11400
C3123       C  0.80917282  0.58311897  0.08563459     0.01400
C3124       C  0.81960157  0.59171548  0.09256180    -0.31400
C3125       C  0.75844444  0.54389379  0.05390322     0.02800
C3126       C  0.74694773  0.53658364  0.04720026    -0.33100
H3127       H  0.75462855  0.57386319  0.06864627     0.13800
H3128       H  0.77661717  0.59093242  0.08237145     0.13600
H3129       H  0.81316987  0.55295831  0.07094859     0.13500
H3130       H  0.79114175  0.53585258  0.05719827     0.12500
C3131       C  0.67215120  0.57068077  0.95350363     0.18900
C3132       C  0.68899741  0.56600721  0.95195186    -0.10300
C3133       C  0.69705624  0.55766097  0.96512441    -0.11100
C3134       C  0.68829486  0.55394991  0.97989298     0.20400
C3135       C  0.67144338  0.55860799  0.98143060    -0.13100
C3136       C  0.66339011  0.56695539  0.96826554    -0.11400
C3137       C  0.69656701  0.54540036  0.99347558     0.01400
C3138       C  0.70333243  0.53830438  0.00499128    -0.31400
C3139       C  0.66388518  0.57943460  0.94005369     0.02800
C3140       C  0.65677255  0.58694277  0.92901428    -0.33100
H3141       H  0.69589194  0.56884580  0.94059833     0.13800
H3142       H  0.71009128  0.55412241  0.96380592     0.13600
H3143       H  0.66455191  0.55580791  0.99279612     0.13500
H3144       H  0.65036772  0.57053661  0.96960504     0.12500
C3145       C  0.57424566  0.57947216  0.28843929     0.18900
C3146       C  0.58310234  0.56568864  0.28221993    -0.10300
C3147       C  0.57657877  0.55635930  0.26881731    -0.11100
C3148       C  0.56118378  0.56079374  0.26160175     0.20400
C3149       C  0.55222220  0.57446396  0.26794622    -0.13100
C3150       C  0.55875101  0.58379985  0.28136256    -0.11400
C3151       C  0.55489364  0.55164379  0.24734816     0.01400
C3152       C  0.55004505  0.54421111  0.23507546    -0.31400
C3153       C  0.58136564  0.58945846  0.30169814     0.02800
C3154       C  0.58794057  0.59786857  0.31245241    -0.33100
H3155       H  0.59512238  0.56229055  0.28759285     0.13800
H3156       H  0.58361496  0.54583532  0.26395583     0.13600
H3157       H  0.54032405  0.57800947  0.26240351     0.13500
H3158       H  0.55184432  0.59447767  0.28607232     0.12500
C3159       C  0.66326171  0.67768888  0.28638801     0.18900
C3160       C  0.66020939  0.67368082  0.26951699    -0.10300
C3161       C  0.66884187  0.68217609  0.25683619    -0.11100
C3162       C  0.68056400  0.69470560  0.26097745     0.20400
C3163       C  0.68357823  0.69875619  0.27785337    -0.13100
C3164       C  0.67493744  0.69025792  0.29054188    -0.11400
C3165       C  0.68957991  0.70323882  0.24788664     0.01400
C3166       C  0.69697342  0.71000156  0.23657164    -0.31400
C3167       C  0.65444733  0.66887808  0.29941275     0.02800
C3168       C  0.64707010  0.66147870  0.31033049    -0.33100
H3169       H  0.65120165  0.66398199  0.26618097     0.13800
H3170       H  0.66642686  0.67894319  0.24382459     0.13600
H3171       H  0.69262300  0.70841789  0.28118903     0.13500
H3172       H  0.67737582  0.69344859  0.30356025     0.12500
C3173       C  0.79029169  0.67590541  0.16179074     0.18900
C3174       C  0.79359267  0.69181422  0.16859284    -0.10300
C3175       C  0.78098968  0.70040366  0.17715111    -0.11100
C3176       C  0.76507404  0.69308259  0.17893907     0.20400
C3177       C  0.76173911  0.67724255  0.17199509    -0.13100
C3178       C  0.77433324  0.66866102  0.16343615    -0.11400
C3179       C  0.75211315  0.70179183  0.18782400     0.01400
C3180       C  0.74082602  0.70885097  0.19486099    -0.31400
C3181       C  0.80339486  0.66682495  0.15353698     0.02800
C3182       C  0.81455678  0.65907448  0.14705449    -0.33100
H3183       H  0.80591768  0.69749521  0.16739672     0.13800
H3184       H  0.78366663  0.71267292  0.18243518     0.13600
H3185       H  0.74944776  0.67150791  0.17327156     0.13500
H3186       H  0.77167966  0.65635236  0.15822957     0.12500
C3187       C  0.66696358  0.80474600  0.16424827     0.18900
C3188       C  0.68429997  0.80319974  0.16183452    -0.10300
C3189       C  0.69304877  0.79008413  0.16948956    -0.11100
C3190       C  0.68446682  0.77850752  0.17957595     0.20400
C3191       C  0.66714556  0.78007109  0.18196425    -0.13100
C3192       C  0.65841301  0.79315895  0.17431868    -0.11400
C3193       C  0.69327539  0.76491611  0.18742199     0.01400
C3194       C  0.69984972  0.75311962  0.19413626    -0.31400
C3195       C  0.65786969  0.81809009  0.15630296     0.02800
C3196       C  0.65001390  0.82906508  0.14955567    -0.33100
H3197       H  0.69101679  0.81208906  0.15403478     0.13800
H3198       H  0.70644319  0.78895916  0.16753834     0.13600
H3199       H  0.66039602  0.77116027  0.18971290     0.13500
H3200       H  0.64500705  0.79422654  0.17622829     0.12500
C3201       C  0.04435368  0.31834577  0.80477428     0.18900
C3202       C  0.05940301  0.31033583  0.80892477    -0.10300
C3203       C  0.07127306  0.31848347  0.81900980    -0.11100
C3204       C  0.06813532  0.33467511  0.82498186     0.20400
C3205       C  0.05298791  0.34263207  0.82104454    -0.13100
C3206       C  0.04109166  0.33446924  0.81091883    -0.11400
C3207       C  0.08064727  0.34318053  0.83484959     0.01400
C3208       C  0.09135760  0.35015256  0.84299203    -0.31400
C3209       C  0.03277408  0.31011864  0.79359614     0.02800
C3210       C  0.02488343  0.30196325  0.78355434    -0.33100
H3211       H  0.06205318  0.29788600  0.80416698     0.13800
H3212       H  0.08295769  0.31224991  0.82198908     0.13600
H3213       H  0.05047976  0.35517458  0.82562576     0.13500
H3214       H  0.02951248  0.34077806  0.80771227     0.12500
C3215       C  0.70790564  0.44219876  0.80742940     0.18900
C3216       C  0.69451190  0.45075063  0.81482746    -0.10300
C3217       C  0.68305953  0.44209383  0.82488175    -0.11100
C3218       C  0.68496524  0.42485397  0.82756225     0.20400
C3219       C  0.69837976  0.41629803  0.82021635    -0.13100
C3220       C  0.70983985  0.42496232  0.81014146    -0.11400
C3221       C  0.67297197  0.41591702  0.83758690     0.01400
C3222       C  0.66261282  0.40854521  0.84573712    -0.31400
C3223       C  0.71921437  0.45111467  0.79660009     0.02800
C3224       C  0.72734181  0.45957487  0.78708915    -0.33100
H3225       H  0.69285545  0.46406719  0.81270992     0.13800
H3226       H  0.67268187  0.44879755  0.83046264     0.13600
H3227       H  0.69990340  0.40294500  0.82218685     0.13500
H3228       H  0.72009587  0.41822832  0.80438553     0.12500
C3229       C  0.31599116  0.51415695  0.94498661     0.18900
C3230       C  0.33198511  0.51139856  0.93833337    -0.10300
C3231       C  0.34011839  0.52410733  0.92937498    -0.11100
C3232       C  0.33228700  0.53961715  0.92703313     0.20400
C3233       C  0.31631556  0.54241039  0.93373819    -0.13100
C3234       C  0.30817329  0.52969066  0.94269663    -0.11400
C3235       C  0.34069145  0.55264128  0.91780262     0.01400
C3236       C  0.34797643  0.56348842  0.91018322    -0.31400
C3237       C  0.30747007  0.50091240  0.95380143     0.02800
C3238       C  0.30024125  0.48955760  0.96069870    -0.33100
H3239       H  0.33811503  0.49941449  0.93999546     0.13800
H3240       H  0.35247363  0.52183645  0.92424743     0.13600
H3241       H  0.31016536  0.55437483  0.93200866     0.13500
H3242       H  0.29578369  0.53192847  0.94775484     0.12500
C3243       C  0.22819379  0.43676924  0.94408008     0.18900
C3244       C  0.21295895  0.44542841  0.94341788    -0.10300
C3245       C  0.19931415  0.43859693  0.93461962    -0.11100
C3246       C  0.20089801  0.42310149  0.92647511     0.20400
C3247       C  0.21611803  0.41443249  0.92717759    -0.13100
C3248       C  0.22974680  0.42125473  0.93596924    -0.11400
C3249       C  0.18699156  0.41603348  0.91734246     0.01400
C3250       C  0.17585361  0.40942793  0.90945393    -0.31400
C3251       C  0.24232587  0.44387608  0.95284676     0.02800
C3252       C  0.25444180  0.44968766  0.95986211    -0.33100
H3253       H  0.21166028  0.45745222  0.94963354     0.13800
H3254       H  0.18758268  0.44538313  0.93413457     0.13600
H3255       H  0.21744791  0.40243798  0.92090516     0.13500
H3256       H  0.24149081  0.41448339  0.93638974     0.12500
C3257       C  0.32659733  0.41108792  0.05298217     0.18900
C3258       C  0.30940016  0.40882794  0.04998278    -0.10300
C3259       C  0.30134279  0.41837320  0.03767666    -0.11100
C3260       C  0.31047922  0.43019488  0.02838884     0.20400
C3261       C  0.32764459  0.43251204  0.03148430    -0.13100
C3262       C  0.33569026  0.42297603  0.04376521    -0.11400
C3263       C  0.30245919  0.43953669  0.01525690     0.01400
C3264       C  0.29630509  0.44697797  0.00365622    -0.31400
C3265       C  0.33503017  0.40119114  0.06540507     0.02800
C3266       C  0.34277204  0.39329028  0.07566328    -0.33100
H3267       H  0.30227843  0.39965095  0.05706257     0.13800
H3268       H  0.28807118  0.41644744  0.03530804     0.13600
H3269       H  0.33482168  0.44157141  0.02430876     0.13500
H3270       H  0.34900032  0.42479387  0.04600594     0.12500
C3271       C  0.55025165  0.41676382  0.82644465     0.18900
C3272       C  0.53406341  0.41231749  0.83168041    -0.10300
C3273       C  0.52003494  0.41954321  0.82403810    -0.11100
C3274       C  0.52211550  0.43126224  0.81111166     0.20400
C3275       C  0.53830778  0.43560242  0.80575623    -0.13100
C3276       C  0.55235484  0.42837218  0.81341325    -0.11400
C3277       C  0.50764989  0.43900486  0.80356055     0.01400
C3278       C  0.49549178  0.44556385  0.79740367    -0.31400
C3279       C  0.56460344  0.40967358  0.83478980     0.02800
C3280       C  0.57607111  0.40362185  0.84258280    -0.33100
H3281       H  0.53229729  0.40337485  0.84176236     0.13800
H3282       H  0.50758716  0.41609399  0.82828911     0.13600
H3283       H  0.54006677  0.44465589  0.79577584     0.13500
H3284       H  0.56481600  0.43192538  0.80928464     0.12500
C3285       C  0.43931220  0.51553855  0.81225308     0.18900
C3286       C  0.42175284  0.51599442  0.81302551    -0.10300
C3287       C  0.41375665  0.52890027  0.82176433    -0.11100
C3288       C  0.42327252  0.54142641  0.82977837     0.20400
C3289       C  0.44082630  0.54113211  0.82878060    -0.13100
C3290       C  0.44882920  0.52821289  0.82004150    -0.11400
C3291       C  0.41501555  0.55431655  0.83932231     0.01400
C3292       C  0.40786883  0.56488297  0.84742302    -0.31400
C3293       C  0.44750683  0.50173174  0.80401982     0.02800
C3294       C  0.45395135  0.48970666  0.79752566    -0.33100
H3295       H  0.41426121  0.50625318  0.80707940     0.13800
H3296       H  0.40018026  0.52899813  0.82244887     0.13600
H3297       H  0.44831295  0.55075498  0.83492122     0.13500
H3298       H  0.46241087  0.52797934  0.81955404     0.12500
C3299       C  0.43534605  0.43386420  0.72897028     0.18900
C3300       C  0.43252924  0.44396074  0.71486761    -0.10300
C3301       C  0.42341128  0.43765947  0.70118770    -0.11100
C3302       C  0.41706393  0.42124252  0.70156450     0.20400
C3303       C  0.41987267  0.41112933  0.71566164    -0.13100
C3304       C  0.42900010  0.41743257  0.72934802    -0.11400
C3305       C  0.40766796  0.41479464  0.68750529     0.01400
C3306       C  0.39977045  0.40922639  0.67580816    -0.31400
C3307       C  0.44448608  0.44049364  0.74313644     0.02800
C3308       C  0.45176993  0.44639243  0.75507390    -0.33100
H3309       H  0.43733727  0.45669897  0.71447247     0.13800
H3310       H  0.42129449  0.44557505  0.69034628     0.13600
H3311       H  0.41499611  0.39841489  0.71607315     0.13500
H3312       H  0.43106257  0.40953880  0.74021519     0.12500
C3313       C  0.55240854  0.33199005  0.92386136     0.18900
C3314       C  0.54906567  0.31533526  0.91923524    -0.10300
C3315       C  0.53555278  0.30672452  0.92638839    -0.11100
C3316       C  0.52536190  0.31475960  0.93817912     0.20400
C3317       C  0.52873129  0.33140187  0.94282984    -0.13100
C3318       C  0.54224208  0.34001098  0.93567677    -0.11400
C3319       C  0.51125629  0.30606219  0.94526561     0.01400
C3320       C  0.49914510  0.29902025  0.95092507    -0.31400
C3321       C  0.56599466  0.34096765  0.91616022     0.02800
C3322       C  0.57704182  0.34855247  0.90918424    -0.33100
H3323       H  0.55682607  0.30906517  0.91004375     0.13800
H3324       H  0.53299768  0.29387220  0.92267204     0.13600
H3325       H  0.52087185  0.33772971  0.95189521     0.13500
H3326       H  0.54469572  0.35291770  0.93926657     0.12500
C3327       C  0.42296358  0.32223363  0.04582831     0.18900
C3328       C  0.41853827  0.32726489  0.02956480    -0.10300
C3329       C  0.42647425  0.32014934  0.01567007    -0.11100
C3330       C  0.43887192  0.30797612  0.01798489     0.20400
C3331       C  0.44320354  0.30283144  0.03423972    -0.13100
C3332       C  0.43526037  0.30995232  0.04814533    -0.11400
C3333       C  0.44733046  0.30102129  0.00368998     0.01400
C3334       C  0.45439490  0.29552474  0.99154425    -0.31400
C3335       C  0.41498518  0.32983821  0.06008047     0.02800
C3336       C  0.40806050  0.33660631  0.07166880    -0.33100
H3337       H  0.40903983  0.33674951  0.02764181     0.13800
H3338       H  0.42303945  0.32421797  0.00315130     0.13600
H3339       H  0.45278214  0.29342895  0.03615789     0.13500
H3340       H  0.43876534  0.30597263  0.06067190     0.12500
C3341       C  0.44008849  0.23370168  0.92707936     0.18900
C3342       C  0.43336089  0.21970014  0.93530115    -0.10300
C3343       C  0.42490252  0.20732158  0.92611234    -0.11100
C3344       C  0.42315609  0.20894087  0.90869839     0.20400
C3345       C  0.42981367  0.22297764  0.90046944    -0.13100
C3346       C  0.43828056  0.23536260  0.90966302    -0.11400
C3347       C  0.41464913  0.19612065  0.89928740     0.01400
C3348       C  0.40757713  0.18528888  0.89142921    -0.31400
C3349       C  0.44867400  0.24644177  0.93655726     0.02800
C3350       C  0.45552879  0.25730149  0.94457394    -0.33100
H3351       H  0.43466421  0.21836004  0.94877883     0.13800
H3352       H  0.41977212  0.19649382  0.93255501     0.13600
H3353       H  0.42849425  0.22431279  0.88699135     0.13500
H3354       H  0.44340747  0.24619391  0.90322353     0.12500
C3355       C  0.32652001  0.20983458  0.81908395     0.18900
C3356       C  0.31941215  0.20772488  0.80310058    -0.10300
C3357       C  0.31056882  0.22086961  0.79565385    -0.11100
C3358       C  0.30882705  0.23613998  0.80418498     0.20400
C3359       C  0.31586841  0.23820775  0.82020598    -0.13100
C3360       C  0.32471011  0.22507254  0.82764585    -0.11400
C3361       C  0.30014961  0.24983914  0.79641637     0.01400
C3362       C  0.29330874  0.26177386  0.79025792    -0.31400
C3363       C  0.33586488  0.19646711  0.82661179     0.02800
C3364       C  0.34396601  0.18544875  0.83293414    -0.33100
H3365       H  0.32078260  0.19597841  0.79638625     0.13800
H3366       H  0.30519874  0.21917448  0.78324199     0.13600
H3367       H  0.31461679  0.24999218  0.82687880     0.13500
H3368       H  0.33019728  0.22681566  0.84000367     0.12500
C3369       C  0.31911595  0.33682432  0.69450019     0.18900
C3370       C  0.32770973  0.33601893  0.70985148    -0.10300
C3371       C  0.32040186  0.32792066  0.72355953    -0.11100
C3372       C  0.30445943  0.32058741  0.72198509     0.20400
C3373       C  0.29581384  0.32143048  0.70664937    -0.13100
C3374       C  0.30313819  0.32954336  0.69291170    -0.11400
C3375       C  0.29705295  0.31224647  0.73615000     0.01400
C3376       C  0.29124741  0.30548341  0.74834694    -0.31400
C3377       C  0.32683443  0.34514144  0.68049407     0.02800
C3378       C  0.33431217  0.35242301  0.66956293    -0.33100
H3379       H  0.34006317  0.34163042  0.71120939     0.13800
H3380       H  0.32717952  0.32735940  0.73536623     0.13600
H3381       H  0.28346305  0.31581430  0.70531785     0.13500
H3382       H  0.29638612  0.33011878  0.68109368     0.12500
C3383       C  0.22790481  0.32014760  0.81160368     0.18900
C3384       C  0.23115738  0.32737755  0.82733781    -0.10300
C3385       C  0.21821637  0.33507849  0.83621934    -0.11100
C3386       C  0.20200931  0.33555628  0.82937605     0.20400
C3387       C  0.19873550  0.32823557  0.81369691    -0.13100
C3388       C  0.21167286  0.32053849  0.80481691    -0.11400
C3389       C  0.18881125  0.34383543  0.83827408     0.01400
C3390       C  0.17778945  0.35101671  0.84558494    -0.31400
C3391       C  0.24122293  0.31238897  0.80239459     0.02800
C3392       C  0.25241360  0.30587488  0.79471941    -0.33100
H3393       H  0.24367812  0.32711899  0.83268479     0.13800
H3394       H  0.22085244  0.34073513  0.84833703     0.13600
H3395       H  0.18623239  0.32857279  0.80831233     0.13500
H3396       H  0.20904764  0.31496501  0.79266055     0.12500
C3397       C  0.82215474  0.16902514  0.07381789     0.18900
C3398       C  0.82471044  0.16908070  0.05644434    -0.10300
C3399       C  0.81321356  0.17703118  0.04590881    -0.11100
C3400       C  0.79913498  0.18491317  0.05272606     0.20400
C3401       C  0.79637896  0.18455509  0.07007506    -0.13100
C3402       C  0.80788029  0.17658107  0.08061995    -0.11400
C3403       C  0.78845606  0.19461630  0.04203355     0.01400
C3404       C  0.78113529  0.20399187  0.03279901    -0.31400
C3405       C  0.83454033  0.16186767  0.08470383     0.02800
C3406       C  0.84503850  0.15625300  0.09397153    -0.33100
H3407       H  0.83575034  0.16330959  0.05109794     0.13800
H3408       H  0.81551742  0.17740852  0.03251399     0.13600
H3409       H  0.78560671  0.19077640  0.07546016     0.13500
H3410       H  0.80585154  0.17662490  0.09406494     0.12500
C3411       C  0.68218546  0.17454207  0.91936589     0.18900
C3412       C  0.69744737  0.16853062  0.92564274    -0.10300
C3413       C  0.70570025  0.17709635  0.93863062    -0.11100
C3414       C  0.69870150  0.19168269  0.94542310     0.20400
C3415       C  0.68321093  0.19744346  0.93945502    -0.13100
C3416       C  0.67495154  0.18886895  0.92646478    -0.11400
C3417       C  0.70814353  0.20152865  0.95735134     0.01400
C3418       C  0.71698847  0.21045074  0.96588111    -0.31400
C3419       C  0.67404499  0.16610772  0.90555623     0.02800
C3420       C  0.66685594  0.15880952  0.89434809    -0.33100
H3421       H  0.70310423  0.15741806  0.92029629     0.13800
H3422       H  0.71772879  0.17260159  0.94306986     0.13600
H3423       H  0.67774536  0.20877605  0.94453524     0.13500
H3424       H  0.66310669  0.19357184  0.92175593     0.12500
C3425       C  0.67611744  0.30696969  0.07767940     0.18900
C3426       C  0.68446393  0.29376923  0.08570841    -0.10300
C3427       C  0.69404735  0.28251559  0.07630222    -0.11100
C3428       C  0.69522607  0.28444675  0.05886211     0.20400
C3429       C  0.68651304  0.29738311  0.05083628    -0.13100
C3430       C  0.67698046  0.30861567  0.06021670    -0.11400
C3431       C  0.70635537  0.27418962  0.04917336     0.01400
C3432       C  0.71620418  0.26771147  0.03979296    -0.31400
C3433       C  0.66730451  0.31931079  0.08732725     0.02800
C3434       C  0.66019337  0.33008302  0.09511314    -0.33100
H3435       H  0.68388189  0.29242596  0.09922925     0.13800
H3436       H  0.70084038  0.27262285  0.08263823     0.13600
H3437       H  0.68744749  0.29904744  0.03736999     0.13500
H3438       H  0.67060140  0.31879831  0.05390407     0.12500
C3439       C  0.68835277  0.33770884  0.92776710     0.18900
C3440       C  0.68963010  0.33746867  0.94530917    -0.10300
C3441       C  0.70245528  0.32839383  0.95307573    -0.11100
C3442       C  0.71405223  0.31955375  0.94332790     0.20400
C3443       C  0.71293240  0.32002358  0.92578308    -0.13100
C3444       C  0.70011893  0.32910766  0.91801896    -0.11400
C3445       C  0.72623866  0.30900895  0.95137174     0.01400
C3446       C  0.73502278  0.29915313  0.95867859    -0.31400
C3447       C  0.67474240  0.34634197  0.91971012     0.02800
C3448       C  0.66349847  0.35316645  0.91227318    -0.33100
H3449       H  0.68057721  0.34405174  0.95295947     0.13800
H3450       H  0.70312550  0.32798577  0.96666071     0.13600
H3451       H  0.72174059  0.31311402  0.91813493     0.13500
H3452       H  0.69921761  0.32920254  0.90444014     0.12500
C3453       C  0.83859580  0.32018205  0.07456475     0.18900
C3454       C  0.84228057  0.30348801  0.07053420    -0.10300
C3455       C  0.83394224  0.29557476  0.05716491    -0.11100
C3456       C  0.82193972  0.30435059  0.04778358     0.20400
C3457       C  0.81842833  0.32109242  0.05171451    -0.13100
C3458       C  0.82675067  0.32898935  0.06505564    -0.11400
C3459       C  0.81242043  0.29590531  0.03487964     0.01400
C3460       C  0.80340600  0.28846561  0.02518316    -0.31400
C3461       C  0.84667677  0.32834788  0.08855501     0.02800
C3462       C  0.85280426  0.33622220  0.09998741    -0.33100
H3463       H  0.85141637  0.29656264  0.07781909     0.13800
H3464       H  0.83664788  0.28257312  0.05431517     0.13600
H3465       H  0.80907756  0.32794935  0.04464106     0.13500
H3466       H  0.82381136  0.34190044  0.06808149     0.12500
C3467       C  0.78964010  0.07518266  0.19583692     0.18900
C3468       C  0.79946949  0.08630018  0.20541296    -0.10300
C3469       C  0.81251417  0.09530987  0.19786888    -0.11100
C3470       C  0.81577578  0.09319567  0.18073476     0.20400
C3471       C  0.80577857  0.08228661  0.17110465    -0.13100
C3472       C  0.79274721  0.07327128  0.17864764    -0.11400
C3473       C  0.82964120  0.10179627  0.17306083     0.01400
C3474       C  0.84118412  0.10843892  0.16591357    -0.31400
C3475       C  0.77739960  0.06469520  0.20394503     0.02800
C3476       C  0.76873403  0.05479747  0.21139557    -0.33100
H3477       H  0.79728306  0.08772040  0.21875785     0.13800
H3478       H  0.82020777  0.10368506  0.20542439     0.13600
H3479       H  0.80823881  0.08054827  0.15784508     0.13500
H3480       H  0.78534342  0.06456815  0.17117453     0.12500
C3481       C  0.68275182  0.05686067  0.30036082     0.18900
C3482       C  0.67981310  0.04743615  0.31489316    -0.10300
C3483       C  0.67079154  0.05436197  0.32815373    -0.11100
C3484       C  0.66470216  0.07073627  0.32691361     0.20400
C3485       C  0.66755618  0.08016654  0.31236202    -0.13100
C3486       C  0.67660653  0.07323171  0.29907982    -0.11400
C3487       C  0.65552303  0.07782053  0.34058528     0.01400
C3488       C  0.64765521  0.08376403  0.35194684    -0.31400
C3489       C  0.69264623  0.04979063  0.28715811     0.02800
C3490       C  0.70183369  0.04280530  0.27750353    -0.33100
H3491       H  0.68460991  0.03479186  0.31601371     0.13800
H3492       H  0.66862584  0.04699961  0.33937321     0.13600
H3493       H  0.66286028  0.09285638  0.31133107     0.13500
H3494       H  0.67890928  0.08063242  0.28791810     0.12500
C3495       C  0.68356982  0.96373889  0.18644756     0.18900
C3496       C  0.68458778  0.96268493  0.16892310    -0.10300
C3497       C  0.67523597  0.95051811  0.16025112    -0.11100
C3498       C  0.66488687  0.93936083  0.16909174     0.20400
C3499       C  0.66385669  0.94044930  0.18660348    -0.13100
C3500       C  0.67318888  0.95260442  0.19526346    -0.11400
C3501       C  0.65550657  0.92664420  0.16025826     0.01400
C3502       C  0.64780289  0.91584569  0.15288229    -0.31400
C3503       C  0.69377714  0.97559403  0.19556084     0.02800
C3504       C  0.70288133  0.98411078  0.20420694    -0.33100
H3505       H  0.69270133  0.97113590  0.16200857     0.13800
H3506       H  0.67615670  0.94973195  0.14670350     0.13600
H3507       H  0.65593919  0.93184224  0.19355463     0.13500
H3508       H  0.67243973  0.95321843  0.20883311     0.12500
C3509       C  0.82532028  0.06138150  0.33660343     0.18900
C3510       C  0.80874622  0.06559964  0.33268733    -0.10300
C3511       C  0.79901610  0.05488855  0.32272128    -0.11100
C3512       C  0.80582908  0.03992388  0.31663342     0.20400
C3513       C  0.82231270  0.03551590  0.32080545    -0.13100
C3514       C  0.83206669  0.04625276  0.33081404    -0.11400
C3515       C  0.79618547  0.02988878  0.30512448     0.01400
C3516       C  0.78739444  0.02340447  0.29463508    -0.31400
C3517       C  0.83549569  0.07302331  0.34592134     0.02800
C3518       C  0.84343060  0.08365198  0.35323528    -0.33100
H3519       H  0.80346648  0.07731226  0.33706227     0.13800
H3520       H  0.78631782  0.05845295  0.31944132     0.13600
H3521       H  0.82771215  0.02402141  0.31603145     0.13500
H3522       H  0.84491301  0.04294107  0.33374916     0.12500
C3523       C  0.07147610  0.90900965  0.42527378     0.18900
C3524       C  0.06312580  0.92267696  0.41812757    -0.10300
C3525       C  0.05041516  0.93075015  0.42700575    -0.11100
C3526       C  0.04596521  0.92517129  0.44305735     0.20400
C3527       C  0.05403470  0.91123891  0.45005404    -0.13100
C3528       C  0.06676527  0.90315132  0.44115933    -0.11400
C3529       C  0.03426651  0.93471005  0.45285427     0.01400
C3530       C  0.02593391  0.94405142  0.46126654    -0.31400
C3531       C  0.08525168  0.90147607  0.41650564     0.02800
C3532       C  0.09683816  0.89578851  0.40871344    -0.33100
H3533       H  0.06668594  0.92730917  0.40585667     0.13800
H3534       H  0.04436640  0.94160069  0.42154459     0.13600
H3535       H  0.05079698  0.90691824  0.46252486     0.13500
H3536       H  0.07316344  0.89259797  0.44679950     0.12500
C3537       C  0.42670175  0.83021781  0.55029799     0.18900
C3538       C  0.42403393  0.81299038  0.54788410    -0.10300
C3539       C  0.43089224  0.80493311  0.53391779    -0.11100
C3540       C  0.44042145  0.81409567  0.52233546     0.20400
C3541       C  0.44316026  0.83130421  0.52480891    -0.13100
C3542       C  0.43630362  0.83935601  0.53876424    -0.11400
C3543       C  0.44732273  0.80593445  0.50784714     0.01400
C3544       C  0.45332520  0.79960939  0.49553326    -0.31400
C3545       C  0.41912454  0.83864044  0.56426933     0.02800
C3546       C  0.41222533  0.84597744  0.57549418    -0.33100
H3547       H  0.41655928  0.80584042  0.55670681     0.13800
H3548       H  0.42870068  0.79162119  0.53210474     0.13600
H3549       H  0.45050758  0.83849551  0.51591200     0.13500
H3550       H  0.43836819  0.85270067  0.54048918     0.12500
C3551       C  0.33432108  0.92461218  0.55233197     0.18900
C3552       C  0.33945092  0.94025572  0.54614029    -0.10300
C3553       C  0.32965670  0.94853523  0.53416572    -0.11100
C3554       C  0.31468333  0.94121031  0.52835642     0.20400
C3555       C  0.30952000  0.92560148  0.53461184    -0.13100
C3556       C  0.31931429  0.91732254  0.54658258    -0.11400
C3557       C  0.30484548  0.94950523  0.51569163     0.01400
C3558       C  0.29702845  0.95629822  0.50466686    -0.31400
C3559       C  0.34441730  0.91605000  0.56458507     0.02800
C3560       C  0.35262834  0.90880500  0.57500963    -0.33100
H3561       H  0.35102421  0.94600841  0.55052033     0.13800
H3562       H  0.33379203  0.96057990  0.52937850     0.13600
H3563       H  0.29799172  0.91980477  0.53017270     0.13500
H3564       H  0.31522590  0.90523595  0.55130547     0.12500
C3565       C  0.32969139  0.04772722  0.42802756     0.18900
C3566       C  0.32673860  0.05040607  0.44517146    -0.10300
C3567       C  0.31772559  0.03851545  0.45448008    -0.11100
C3568       C  0.31161707  0.02392320  0.44665822     0.20400
C3569       C  0.31466901  0.02122943  0.42955479    -0.13100
C3570       C  0.32367086  0.03309195  0.42026755    -0.11400
C3571       C  0.30244669  0.01150833  0.45607966     0.01400
C3572       C  0.29521221  0.00025521  0.46318032    -0.31400
C3573       C  0.33865816  0.06006344  0.41831540     0.02800
C3574       C  0.34594206  0.07054985  0.41016381    -0.33100
H3575       H  0.33133874  0.06168799  0.45130221     0.13800
H3576       H  0.31550989  0.04069964  0.46771606     0.13600
H3577       H  0.31007368  0.00996075  0.42339669     0.13500
H3578       H  0.32587872  0.03088606  0.40703355     0.12500
C3579       C  0.22966952  0.93976079  0.44521568     0.18900
C3580       C  0.23435098  0.93103092  0.43069404    -0.10300
C3581       C  0.22234090  0.92207587  0.42140011    -0.11100
C3582       C  0.20555666  0.92178039  0.42656060     0.20400
C3583       C  0.20083236  0.93055952  0.44105137    -0.13100
C3584       C  0.21286244  0.93953015  0.45036084    -0.11400
C3585       C  0.19326096  0.91245083  0.41697168     0.01400
C3586       C  0.18314856  0.90461300  0.40873069    -0.31400
C3587       C  0.24220200  0.94880965  0.45478674     0.02800
C3588       C  0.25332667  0.95604414  0.46223534    -0.33100
H3589       H  0.24729516  0.93111264  0.42658192     0.13800
H3590       H  0.22614468  0.91535812  0.41021750     0.13600
H3591       H  0.18788669  0.93043674  0.44515870     0.13500
H3592       H  0.20907949  0.94622816  0.46155992     0.12500
C3593       C  0.70609032  0.93401892  0.29915133     0.18900
C3594       C  0.69494369  0.92438956  0.28940620    -0.10300
C3595       C  0.68234870  0.91493396  0.29715008    -0.11100
C3596       C  0.68086003  0.91510593  0.31465801     0.20400
C3597       C  0.69227919  0.92437632  0.32442883    -0.13100
C3598       C  0.70486545  0.93384564  0.31668431    -0.11400
C3599       C  0.66722773  0.90638941  0.32260293     0.01400
C3600       C  0.65585561  0.89960933  0.32988904    -0.31400
C3601       C  0.71753128  0.94538187  0.29107310     0.02800
C3602       C  0.72523180  0.95608554  0.28368769    -0.33100
H3603       H  0.69567573  0.92459351  0.27582494     0.13800
H3604       H  0.67355175  0.90783103  0.28949390     0.13600
H3605       H  0.69119723  0.92459998  0.33798584     0.13500
H3606       H  0.71330385  0.94139450  0.32431695     0.12500
C3607       C  0.51935545  0.81779442  0.43503698     0.18900
C3608       C  0.51523273  0.83016486  0.42327797    -0.10300
C3609       C  0.52780018  0.83764909  0.41361015    -0.11100
C3610       C  0.54453776  0.83278804  0.41566193     0.20400
C3611       C  0.54868723  0.82044649  0.42745595    -0.13100
C3612       C  0.53610611  0.81295284  0.43713354    -0.11400
C3613       C  0.55742000  0.84052615  0.40570204     0.01400
C3614       C  0.56818261  0.84713388  0.39739510    -0.31400
C3615       C  0.50629886  0.80975733  0.44453178     0.02800
C3616       C  0.49497561  0.80283833  0.45176972    -0.33100
H3617       H  0.50230668  0.83394208  0.42151762     0.13800
H3618       H  0.52447461  0.84718593  0.40452744     0.13600
H3619       H  0.56160692  0.81661018  0.42913267     0.13500
H3620       H  0.53940984  0.80334470  0.44614757     0.12500
C3621       C  0.54560140  0.92208620  0.31785129     0.18900
C3622       C  0.52918553  0.91571192  0.31799191    -0.10300
C3623       C  0.51618100  0.92475893  0.31052101    -0.11100
C3624       C  0.51952409  0.94023563  0.30288430     0.20400
C3625       C  0.53594230  0.94664675  0.30277184    -0.13100
C3626       C  0.54896602  0.93758402  0.31024801    -0.11400
C3627       C  0.50606802  0.94948962  0.29523271     0.01400
C3628       C  0.49450081  0.95695368  0.28900849    -0.31400
C3629       C  0.55889369  0.91271959  0.32561697     0.02800
C3630       C  0.56963546  0.90462055  0.33248311    -0.33100
H3631       H  0.52644776  0.90376123  0.32387474     0.13800
H3632       H  0.50353288  0.91969732  0.31070169     0.13600
H3633       H  0.53866081  0.95861497  0.29692028     0.13500
H3634       H  0.56161716  0.94263990  0.31010331     0.12500
C3635       C  0.42587693  0.93470846  0.18867011     0.18900
C3636       C  0.41672441  0.94649785  0.19788129    -0.10300
C3637       C  0.42406182  0.95446065  0.21177056    -0.11100
C3638       C  0.44056412  0.95064002  0.21647123     0.20400
C3639       C  0.44981253  0.93910888  0.20704618    -0.13100
C3640       C  0.44248181  0.93115478  0.19316969    -0.11400
C3641       C  0.44774388  0.95782484  0.23144162     0.01400
C3642       C  0.45372695  0.96302241  0.24436444    -0.31400
C3643       C  0.41796689  0.92556913  0.17521509     0.02800
C3644       C  0.41111074  0.91723150  0.16455853    -0.33100
H3645       H  0.40384196  0.94926508  0.19453886     0.13800
H3646       H  0.41678253  0.96331147  0.21902399     0.13600
H3647       H  0.46255659  0.93602318  0.21062516     0.13500
H3648       H  0.44963037  0.92199954  0.18616788     0.12500
C3649       C  0.41873129  0.04770110  0.32791098     0.18900
C3650       C  0.42872170  0.05222360  0.31418924    -0.10300
C3651       C  0.43714614  0.03987742  0.30506920    -0.11100
C3652       C  0.43561613  0.02297696  0.30965989     0.20400
C3653       C  0.42553780  0.01845258  0.32331494    -0.13100
C3654       C  0.41711294  0.03079351  0.33242804    -0.11400
C3655       C  0.44440839  0.01026925  0.30043236     0.01400
C3656       C  0.45155767  0.99940252  0.29280042    -0.31400
C3657       C  0.41030254  0.06040608  0.33746761     0.02800
C3658       C  0.40339344  0.07107363  0.34559466    -0.33100
H3659       H  0.43005047  0.06527124  0.31060290     0.13800
H3660       H  0.44489068  0.04350196  0.29451407     0.13600
H3661       H  0.42425447  0.00541409  0.32694814     0.13500
H3662       H  0.40941217  0.02717299  0.34301776     0.12500
C3663       C  0.44051187  0.73324190  0.43373868     0.18900
C3664       C  0.44243269  0.71631269  0.43801575    -0.10300
C3665       C  0.43482635  0.70382132  0.42817257    -0.11100
C3666       C  0.42529815  0.70823706  0.41403814     0.20400
C3667       C  0.42345720  0.72515399  0.40974176    -0.13100
C3668       C  0.43105353  0.73762289  0.41956403    -0.11400
C3669       C  0.41716803  0.69547757  0.40408755     0.01400
C3670       C  0.41004098  0.68487095  0.39589188    -0.31400
C3671       C  0.44817299  0.74621861  0.44377998     0.02800
C3672       C  0.45428762  0.75781885  0.45140655    -0.33100
H3673       H  0.44973963  0.71279151  0.44894267     0.13800
H3674       H  0.43630388  0.69076298  0.43160689     0.13600
H3675       H  0.41609642  0.72869833  0.39885715     0.13500
H3676       H  0.42951084  0.75067738  0.41614229     0.12500
C3677       C  0.21298431  0.84027497  0.32221228     0.18900
C3678       C  0.21150024  0.82461791  0.31430532    -0.10300
C3679       C  0.22537619  0.81759027  0.30630904    -0.11100
C3680       C  0.24075222  0.82620754  0.30621078     0.20400
C3681       C  0.24217385  0.84194400  0.31395419    -0.13100
C3682       C  0.22830591  0.84896640  0.32194786    -0.11400
C3683       C  0.25517536  0.81870497  0.29857899     0.01400
C3684       C  0.26729208  0.81214438  0.29251567    -0.31400
C3685       C  0.19898175  0.84720482  0.33106617     0.02800
C3686       C  0.18752764  0.85291896  0.33900472    -0.33100
H3687       H  0.19970317  0.81778759  0.31448943     0.13800
H3688       H  0.22417531  0.80539216  0.30037788     0.13600
H3689       H  0.25402567  0.84868019  0.31396979     0.13500
H3690       H  0.22957071  0.86106067  0.32807716     0.12500
C3691       C  0.33243197  0.71047532  0.32220891     0.18900
C3692       C  0.33481879  0.71366857  0.30510356    -0.10300
C3693       C  0.32824207  0.72819118  0.29789986    -0.11100
C3694       C  0.31928070  0.73956012  0.30778920     0.20400
C3695       C  0.31679283  0.73631447  0.32488218    -0.13100
C3696       C  0.32337956  0.72178569  0.33209129    -0.11400
C3697       C  0.31281638  0.75461992  0.30039851     0.01400
C3698       C  0.30752717  0.76720211  0.29400450    -0.31400
C3699       C  0.33989000  0.69598591  0.32976172     0.02800
C3700       C  0.34689907  0.68444113  0.33643808    -0.33100
H3701       H  0.34189089  0.70503245  0.29739680     0.13800
H3702       H  0.33023898  0.73061526  0.28467354     0.13600
H3703       H  0.30989138  0.74505265  0.33262994     0.13500
H3704       H  0.32156975  0.71945578  0.34536373     0.12500
C3705       C  0.34053883  0.83607958  0.19537969     0.18900
C3706       C  0.33187724  0.84627283  0.20672416    -0.10300
C3707       C  0.32394018  0.83913437  0.22062014    -0.11100
C3708       C  0.32464700  0.82177831  0.22322446     0.20400
C3709       C  0.33325026  0.81156482  0.21184491    -0.13100
C3710       C  0.34118881  0.81870951  0.19793241    -0.11400
C3711       C  0.31673362  0.81453109  0.23769667     0.01400
C3712       C  0.31018279  0.80876859  0.25001863    -0.31400
C3713       C  0.34884252  0.84352668  0.18123438     0.02800
C3714       C  0.35571051  0.85035297  0.16963997    -0.33100
H3715       H  0.33131947  0.85972291  0.20485742     0.13800
H3716       H  0.31733314  0.84713698  0.22936201     0.13600
H3717       H  0.33387862  0.79812817  0.21376844     0.13500
H3718       H  0.34786522  0.81072914  0.18922589     0.12500
C3719       C  0.43209316  0.09073682  0.06733477     0.18900
C3720       C  0.43200063  0.09209931  0.04981240    -0.10300
C3721       C  0.44470667  0.08463452  0.04040831    -0.11100
C3722       C  0.45755380  0.07581482  0.04850305     0.20400
C3723       C  0.45788286  0.07482208  0.06605772    -0.13100
C3724       C  0.44517571  0.08230115  0.07546711    -0.11400
C3725       C  0.46933167  0.06641144  0.03872019     0.01400
C3726       C  0.47755438  0.05719163  0.03009642    -0.31400
C3727       C  0.41847666  0.09746456  0.07692265     0.02800
C3728       C  0.40710947  0.10289506  0.08518026    -0.33100
H3729       H  0.42192675  0.09859130  0.04341967     0.13800
H3730       H  0.44425457  0.08532597  0.02682752     0.13600
H3731       H  0.46767141  0.06788586  0.07242138     0.13500
H3732       H  0.44533941  0.08118358  0.08902404     0.12500
C3733       C  0.58573738  0.08456258  0.92199750     0.18900
C3734       C  0.57562403  0.09353336  0.93316902    -0.10300
C3735       C  0.56614495  0.08495967  0.94518595    -0.11100
C3736       C  0.56680925  0.06741977  0.94605617     0.20400
C3737       C  0.57694016  0.05848096  0.93489000    -0.13100
C3738       C  0.58639532  0.06703995  0.92288716    -0.11400
C3739       C  0.55644238  0.05846093  0.95773993     0.01400
C3740       C  0.54696002  0.05035029  0.96624378    -0.31400
C3741       C  0.59526247  0.09321888  0.90942272     0.02800
C3742       C  0.60319155  0.09997208  0.89850077    -0.33100
H3743       H  0.57498997  0.10709326  0.93251307     0.13800
H3744       H  0.55820535  0.09196118  0.95366367     0.13600
H3745       H  0.57739600  0.04490393  0.93535867     0.13500
H3746       H  0.59412455  0.06000483  0.91424006     0.12500
C3747       C  0.57181019  0.94070009  0.07487306     0.18900
C3748       C  0.58135162  0.95265868  0.06616869    -0.10300
C3749       C  0.57336102  0.96520318  0.05688853    -0.11100
C3750       C  0.55580298  0.96584585  0.05632279     0.20400
C3751       C  0.54628054  0.95403587  0.06523924    -0.13100
C3752       C  0.55426405  0.94149720  0.07450090    -0.11400
C3753       C  0.54746797  0.97785344  0.04576900     0.01400
C3754       C  0.53963069  0.98652377  0.03619411    -0.31400
C3755       C  0.58000455  0.92739788  0.08384342     0.02800
C3756       C  0.58707412  0.91623962  0.09115794    -0.33100
H3757       H  0.59493451  0.95213747  0.06636506     0.13800
H3758       H  0.58084303  0.97419346  0.04994265     0.13600
H3759       H  0.53269387  0.95434436  0.06478619     0.13500
H3760       H  0.54677063  0.93230356  0.08116747     0.12500
C3761       C  0.43507758  0.95112531  0.02866236     0.18900
C3762       C  0.42314215  0.95846461  0.03919255    -0.10300
C3763       C  0.41505452  0.94878566  0.05135825    -0.11100
C3764       C  0.41890910  0.93175457  0.05304283     0.20400
C3765       C  0.43046524  0.92428776  0.04217894    -0.13100
C3766       C  0.43856287  0.93397344  0.03000884    -0.11400
C3767       C  0.41164729  0.92218502  0.06644623     0.01400
C3768       C  0.40584450  0.91433386  0.07796086    -0.31400
C3769       C  0.44505463  0.96155544  0.01789037     0.02800
C3770       C  0.45465029  0.97078049  0.01074509    -0.33100
H3771       H  0.42050680  0.97176065  0.03836965     0.13800
H3772       H  0.40615897  0.95466720  0.05973519     0.13600
H3773       H  0.43354526  0.91112387  0.04342257     0.13500
H3774       H  0.44791586  0.92823153  0.02204596     0.12500
C3775       C  0.42785997  0.07593302  0.90317229     0.18900
C3776       C  0.44151073  0.06701984  0.89677182    -0.10300
C3777       C  0.44957040  0.05511512  0.90676683    -0.11100
C3778       C  0.44393990  0.05210365  0.92313015     0.20400
C3779       C  0.43016168  0.06088029  0.92943356    -0.13100
C3780       C  0.42211714  0.07276992  0.91945472    -0.11400
C3781       C  0.45311026  0.04111026  0.93396906     0.01400
C3782       C  0.46154424  0.03356664  0.94392117    -0.31400
C3783       C  0.41984650  0.08854177  0.89323495     0.02800
C3784       C  0.41256900  0.09927785  0.88559045    -0.33100
H3785       H  0.44603615  0.06942801  0.88418912     0.13800
H3786       H  0.46034872  0.04851083  0.90187627     0.13600
H3787       H  0.42585456  0.05876271  0.94214716     0.13500
H3788       H  0.41157648  0.07964372  0.92449527     0.12500
C3789       C  0.04545607  0.80318405  0.16843756     0.18900
C3790       C  0.03748005  0.81825067  0.16428405    -0.10300
C3791       C  0.04541922  0.82980629  0.15375339    -0.11100
C3792       C  0.06134975  0.82630903  0.14733772     0.20400
C3793       C  0.06911776  0.81103643  0.15108769    -0.13100
C3794       C  0.06118271  0.79948235  0.16163805    -0.11400
C3795       C  0.07032642  0.83889495  0.13809430     0.01400
C3796       C  0.07873004  0.84958851  0.13150368    -0.31400
C3797       C  0.03800748  0.79224127  0.18066500     0.02800
C3798       C  0.03139041  0.78458347  0.19187279    -0.33100
H3799       H  0.02535793  0.82126912  0.16957373     0.13800
H3800       H  0.03937458  0.84164010  0.15102113     0.13600
H3801       H  0.08149987  0.80829153  0.14626759     0.13500
H3802       H  0.06749448  0.78791895  0.16486274     0.12500
C3803       C  0.93727106  0.69118691  0.33513446     0.18900
C3804       C  0.92833605  0.70545273  0.33021245    -0.10300
C3805       C  0.93603898  0.71759502  0.32017763    -0.11100
C3806       C  0.95268836  0.71548558  0.31509103     0.20400
C3807       C  0.96169904  0.70135027  0.32024559    -0.13100
C3808       C  0.95399615  0.68920912  0.33026457    -0.11400
C3809       C  0.96018423  0.72710577  0.30358884     0.01400
C3810       C  0.96670139  0.73547210  0.29286859    -0.31400
C3811       C  0.92912001  0.67838059  0.34478634     0.02800
C3812       C  0.92179467  0.66776641  0.35263253    -0.33100
H3813       H  0.91537226  0.70704761  0.33391419     0.13800
H3814       H  0.92894238  0.72842147  0.31612461     0.13600
H3815       H  0.97454481  0.69955858  0.31624120     0.13500
H3816       H  0.96097285  0.67818940  0.33399341     0.12500
C3817       C  0.94808332  0.69944466  0.18528590     0.18900
C3818       C  0.95099458  0.69514642  0.16849057    -0.10300
C3819       C  0.93887762  0.68605498  0.15947428    -0.11100
C3820       C  0.92383491  0.68129965  0.16723677     0.20400
C3821       C  0.92092528  0.68565020  0.18400309    -0.13100
C3822       C  0.93302275  0.69471376  0.19300550    -0.11400
C3823       C  0.91145690  0.67175975  0.15813210     0.01400
C3824       C  0.90110104  0.66344816  0.15079866    -0.31400
C3825       C  0.96022078  0.70910552  0.19459860     0.02800
C3826       C  0.96910394  0.71786735  0.20321848    -0.33100
H3827       H  0.96256681  0.69883611  0.16239012     0.13800
H3828       H  0.94122931  0.68272241  0.14650302     0.13600
H3829       H  0.90933282  0.68201927  0.19010592     0.13500
H3830       H  0.93062422  0.69806865  0.20596393     0.12500
C3831       C  0.05097726  0.81971037  0.29934344     0.18900
C3832       C  0.04726330  0.83197011  0.31136032    -0.10300
C3833       C  0.06022619  0.83937232  0.32072790    -0.11100
C3834       C  0.07688617  0.83450527  0.31809063     0.20400
C3835       C  0.08057846  0.82231801  0.30601402    -0.13100
C3836       C  0.06764338  0.81493339  0.29666288    -0.11400
C3837       C  0.09014528  0.84174907  0.32801772     0.01400
C3838       C  0.10096527  0.84780390  0.33674822    -0.31400
C3839       C  0.03784916  0.81166904  0.28986450     0.02800
C3840       C  0.02831714  0.80356073  0.28131233    -0.33100
H3841       H  0.03440643  0.83571082  0.31354314     0.13800
H3842       H  0.05726931  0.84877455  0.33008717     0.13600
H3843       H  0.09341511  0.81845192  0.30392016     0.13500
H3844       H  0.07061826  0.80542603  0.28741375     0.12500
C3845       C  0.08461435  0.68071944  0.29733917     0.18900
C3846       C  0.09221861  0.69289366  0.28717957    -0.10300
C3847       C  0.08259198  0.70182074  0.27554158    -0.11100
C3848       C  0.06535833  0.69854636  0.27401190     0.20400
C3849       C  0.05786719  0.68605676  0.28386944    -0.13100
C3850       C  0.06747807  0.67715139  0.29549896    -0.11400
C3851       C  0.05499894  0.70905088  0.26367257     0.01400
C3852       C  0.04531648  0.71853531  0.25704419    -0.31400
C3853       C  0.09412279  0.67247694  0.31023526     0.02800
C3854       C  0.10152865  0.66568083  0.32151612    -0.33100
H3855       H  0.10545927  0.69577157  0.28855501     0.13800
H3856       H  0.08846669  0.71157743  0.26810886     0.13600
H3857       H  0.04451583  0.68355313  0.28291456     0.13500
H3858       H  0.06147494  0.66779752  0.30333952     0.12500
C3859       C  0.81906710  0.72161420  0.43649636     0.18900
C3860       C  0.81831283  0.71795342  0.41930152    -0.10300
C3861       C  0.82871907  0.70561407  0.41254313    -0.11100
C3862       C  0.83983450  0.69687348  0.42298100     0.20400
C3863       C  0.84084157  0.70080112  0.44009204    -0.13100
C3864       C  0.83046589  0.71313845  0.44683776    -0.11400
C3865       C  0.84970643  0.68343738  0.41628043     0.01400
C3866       C  0.85763670  0.67201648  0.41046703    -0.31400
C3867       C  0.80696965  0.73259038  0.44396985     0.02800
C3868       C  0.79601755  0.73946869  0.45167971    -0.33100
H3869       H  0.80938148  0.72427450  0.41124492     0.13800
H3870       H  0.82782859  0.70262044  0.39929152     0.13600
H3871       H  0.84935959  0.69407646  0.44826764     0.13500
H3872       H  0.83097994  0.71572180  0.46019418     0.12500
C3873       C  0.70518645  0.81818516  0.43394669     0.18900
C3874       C  0.70670798  0.82001971  0.41652941    -0.10300
C3875       C  0.69387099  0.82766897  0.40734368    -0.11100
C3876       C  0.67948365  0.83342304  0.41555917     0.20400
C3877       C  0.67811211  0.83185674  0.43299558    -0.13100
C3878       C  0.69093521  0.82424136  0.44216812    -0.11400
C3879       C  0.66598407  0.84062903  0.40609088     0.01400
C3880       C  0.65478579  0.84671718  0.39800961    -0.31400
C3881       C  0.71739545  0.80882914  0.44330425     0.02800
C3882       C  0.72568640  0.79969781  0.45199578    -0.33100
H3883       H  0.71760187  0.81522838  0.41003746     0.13800
H3884       H  0.69502670  0.82884321  0.39384461     0.13600
H3885       H  0.66703220  0.83627029  0.43944793     0.13500
H3886       H  0.68957131  0.82272995  0.45561345     0.12500
C3887       C  0.66301666  0.81191856  0.57221237     0.18900
C3888       C  0.66053522  0.81186830  0.55478793    -0.10300
C3889       C  0.66913749  0.80040723  0.54473379    -0.11100
C3890       C  0.68022212  0.78895595  0.55208709     0.20400
C3891       C  0.68241692  0.78877575  0.56954118    -0.13100
C3892       C  0.67381533  0.80022944  0.57959056    -0.11400
C3893       C  0.69053010  0.77855412  0.54165645     0.01400
C3894       C  0.70042864  0.77143230  0.53281052    -0.31400
C3895       C  0.65512709  0.82444882  0.58242837     0.02800
C3896       C  0.64901633  0.83532219  0.59091640    -0.33100
H3897       H  0.65226242  0.82091341  0.54896143     0.13800
H3898       H  0.66749856  0.80077271  0.53122629     0.13600
H3899       H  0.69110164  0.78009684  0.57532444     0.13500
H3900       H  0.67586394  0.80021991  0.59304821     0.12500
C3901       C  0.66858034  0.67720012  0.41941130     0.18900
C3902       C  0.68253038  0.66932016  0.42658573    -0.10300
C3903       C  0.69258096  0.67799717  0.43813748    -0.11100
C3904       C  0.68864474  0.69452943  0.44252014     0.20400
C3905       C  0.67459733  0.70232875  0.43546759    -0.13100
C3906       C  0.66456337  0.69366382  0.42392502    -0.11400
C3907       C  0.69938831  0.70381792  0.45364627     0.01400
C3908       C  0.70851739  0.71241810  0.46211895    -0.31400
C3909       C  0.65858445  0.66856753  0.40713544     0.02800
C3910       C  0.65025418  0.66148309  0.39667243    -0.33100
H3911       H  0.68572109  0.65658299  0.42311636     0.13800
H3912       H  0.70349011  0.67192084  0.44347838     0.13600
H3913       H  0.67153589  0.71515237  0.43873325     0.13500
H3914       H  0.65380620  0.69984086  0.41839255     0.12500
C3915       C  0.81667024  0.66762127  0.56330935     0.18900
C3916       C  0.80191416  0.67205059  0.57171315    -0.10300
C3917       C  0.78963120  0.68147842  0.56346262    -0.11100
C3918       C  0.79207470  0.68646739  0.54678433     0.20400
C3919       C  0.80660896  0.68159785  0.53825851    -0.13100
C3920       C  0.81887400  0.67219959  0.54649800    -0.11400
C3921       C  0.78036598  0.69751553  0.53866513     0.01400
C3922       C  0.77204011  0.70757023  0.53106753    -0.31400
C3923       C  0.82990021  0.65909964  0.57210370     0.02800
C3924       C  0.84120314  0.65236775  0.57954179    -0.33100
H3925       H  0.80009681  0.66856812  0.58472714     0.13800
H3926       H  0.77847053  0.68522239  0.57019088     0.13600
H3927       H  0.80865381  0.68543485  0.52537872     0.13500
H3928       H  0.83023618  0.66884740  0.53989288     0.12500
C3929       C  0.16949931  0.08251174  0.80652231     0.18900
C3930       C  0.16086974  0.06900900  0.79911789    -0.10300
C3931       C  0.16897599  0.05871311  0.78749726    -0.11100
C3932       C  0.18572049  0.06193136  0.78322447     0.20400
C3933       C  0.19425615  0.07558806  0.79044620    -0.13100
C3934       C  0.18615928  0.08586878  0.80206608    -0.11400
C3935       C  0.19467180  0.05045678  0.77264945     0.01400
C3936       C  0.20347064  0.04042705  0.76565115    -0.31400
C3937       C  0.16148649  0.09243887  0.81920954     0.02800
C3938       C  0.15466183  0.10010934  0.83026241    -0.33100
H3939       H  0.14800473  0.06626206  0.80256426     0.13800
H3940       H  0.16233110  0.04806229  0.78214544     0.13600
H3941       H  0.20727405  0.07805395  0.78737924     0.13500
H3942       H  0.19296622  0.09622105  0.80779257     0.12500
C3943       C  0.16707417  0.92004077  0.67689132     0.18900
C3944       C  0.16754988  0.92089849  0.69443676    -0.10300
C3945       C  0.17645905  0.93382679  0.70236430    -0.11100
C3946       C  0.18487235  0.94591936  0.69275635     0.20400
C3947       C  0.18416703  0.94521573  0.67520712    -0.13100
C3948       C  0.17524117  0.93229172  0.66727750    -0.11400
C3949       C  0.19514786  0.95828001  0.70098205     0.01400
C3950       C  0.20456424  0.96719555  0.70880616    -0.31400
C3951       C  0.15852914  0.90642701  0.66869555     0.02800
C3952       C  0.15152373  0.89532219  0.66115622    -0.33100
H3953       H  0.16126452  0.91146366  0.70195329     0.13800
H3954       H  0.17705664  0.93421903  0.71595541     0.13600
H3955       H  0.19074552  0.95444699  0.66769054     0.13500
H3956       H  0.17491404  0.93169884  0.65368546     0.12500
C3957       C  0.28806533  0.05303993  0.68077907     0.18900
C3958       C  0.29802944  0.04545978  0.66849043    -0.10300
C3959       C  0.31047247  0.05478486  0.66034723    -0.11100
C3960       C  0.31299835  0.07169500  0.66450883     0.20400
C3961       C  0.30277787  0.07937650  0.67650586    -0.13100
C3962       C  0.29034453  0.07005513  0.68464931    -0.11400
C3963       C  0.32647348  0.08101293  0.65699691     0.01400
C3964       C  0.33783318  0.08909442  0.65115047    -0.31400
C3965       C  0.27675100  0.04300633  0.69059740     0.02800
C3966       C  0.26897521  0.03430721  0.70019367    -0.33100
H3967       H  0.29649159  0.03225895  0.66555016     0.13800
H3968       H  0.31834954  0.04873508  0.65110842     0.13600
H3969       H  0.30467014  0.09244631  0.67982349     0.13500
H3970       H  0.28283420  0.07598033  0.69426938     0.12500
C3971       C  0.33299994  0.92212756  0.68497303     0.18900
C3972       C  0.32562708  0.91239976  0.69763192    -0.10300
C3973       C  0.31553314  0.92000625  0.70975157    -0.11100
C3974       C  0.31286344  0.93734897  0.70922392     0.20400
C3975       C  0.32038512  0.94706261  0.69665735    -0.13100
C3976       C  0.33043921  0.93947038  0.68455492    -0.11400
C3977       C  0.30170466  0.94525670  0.72086391     0.01400
C3978       C  0.29182072  0.95339144  0.72877870    -0.31400
C3979       C  0.34285118  0.91429117  0.67217066     0.02800
C3980       C  0.35084715  0.90751817  0.66135060    -0.33100
H3981       H  0.32752228  0.89895344  0.69800332     0.13800
H3982       H  0.30965923  0.91237921  0.71934679     0.13600
H3983       H  0.31827723  0.96047030  0.69608190     0.13500
H3984       H  0.33604963  0.94707404  0.67478145     0.12500
C3985       C  0.32913415  0.07537762  0.81441549     0.18900
C3986       C  0.33529482  0.06562016  0.80120545    -0.10300
C3987       C  0.32539963  0.05276939  0.79440723    -0.11100
C3988       C  0.30936359  0.04964631  0.80084702     0.20400
C3989       C  0.30320035  0.05940572  0.81406671    -0.13100
C3990       C  0.31309835  0.07225853  0.82086654    -0.11400
C3991       C  0.29892835  0.03700934  0.79329869     0.01400
C3992       C  0.28977133  0.02739953  0.78602367    -0.31400
C3993       C  0.33930494  0.08848874  0.82147507     0.02800
C3994       C  0.34768381  0.09933960  0.82788910    -0.33100
H3995       H  0.34769347  0.06796962  0.79615966     0.13800
H3996       H  0.33018289  0.04536358  0.78407682     0.13600
H3997       H  0.29074055  0.05715922  0.81901030     0.13500
H3998       H  0.30825839  0.07976991  0.83109514     0.12500
C3999       C  0.07976610  0.43041910  0.07885792     0.18900
C4000       C  0.08281958  0.43453076  0.06205870    -0.10300
C4001       C  0.07443874  0.44799233  0.05466000    -0.11100
C4002       C  0.06302394  0.45742310  0.06405061     0.20400
C4003       C  0.06007262  0.45339859  0.08089696    -0.13100
C4004       C  0.06847033  0.43993594  0.08830440    -0.11400
C4005       C  0.05322531  0.47010960  0.05588814     0.01400
C4006       C  0.04387487  0.47868415  0.04772941    -0.31400
C4007       C  0.08820204  0.41644351  0.08640091     0.02800
C4008       C  0.09546651  0.40502150  0.09304705    -0.33100
H4009       H  0.09152971  0.42723981  0.05465502     0.13800
H4010       H  0.07662217  0.45085601  0.04155102     0.13600
H4011       H  0.05108942  0.46046089  0.08819176     0.13500
H4012       H  0.06603520  0.43684020  0.10131374     0.12500
C4013       C  0.06911556  0.58226090  0.93303254     0.18900
C4014       C  0.05301893  0.57554357  0.93066306    -0.10300
C4015       C  0.04562034  0.56598733  0.94332835    -0.11100
C4016       C  0.05430107  0.56313747  0.95838130     0.20400
C4017       C  0.07040355  0.56985792  0.96075910    -0.13100
C4018       C  0.07780782  0.57943343  0.94808041    -0.11400
C4019       C  0.04673707  0.55285178  0.97104338     0.01400
C4020       C  0.03920367  0.54341534  0.98008468    -0.31400
C4021       C  0.07676116  0.59197514  0.91999966     0.02800
C4022       C  0.08354226  0.60007587  0.90924571    -0.33100
H4023       H  0.04623809  0.57764994  0.91904133     0.13800
H4024       H  0.03318660  0.56074189  0.94135920     0.13600
H4025       H  0.07723091  0.56762718  0.97232441     0.13500
H4026       H  0.09029239  0.58457887  0.94997216     0.12500
C4027       C  0.93180986  0.58207616  0.08087026     0.18900
C4028       C  0.93816832  0.58783214  0.06554278    -0.10300
C4029       C  0.95116766  0.57918247  0.05767159    -0.11100
C4030       C  0.95787896  0.56478920  0.06513792     0.20400
C4031       C  0.95173285  0.55922805  0.08062702    -0.13100
C4032       C  0.93873317  0.56787651  0.08849629    -0.11400
C4033       C  0.96973904  0.55475964  0.05609689     0.01400
C4034       C  0.97771115  0.54525968  0.04753627    -0.31400
C4035       C  0.91791326  0.59047264  0.08855066     0.02800
C4036       C  0.90624169  0.59750081  0.09497219    -0.33100
H4037       H  0.93287297  0.59879432  0.05954279     0.13800
H4038       H  0.95568186  0.58345460  0.04558775     0.13600
H4039       H  0.95668605  0.54798435  0.08639255     0.13500
H4040       H  0.93387589  0.56332230  0.10034138     0.12500
C4041       C  0.06509967  0.42023620  0.92602626     0.18900
C4042       C  0.05814641  0.43498904  0.91957319    -0.10300
C4043       C  0.04616593  0.44373853  0.92882109    -0.11100
C4044       C  0.04108912  0.43773456  0.94452899     0.20400
C4045       C  0.04779600  0.42279617  0.95082774    -0.13100
C4046       C  0.05978027  0.41404478  0.94157685    -0.11400
C4047       C  0.03006851  0.44758111  0.95474821     0.01400
C4048       C  0.02220267  0.45657443  0.96392801    -0.31400
C4049       C  0.07813046  0.41184073  0.91697035     0.02800
C4050       C  0.08928470  0.40524765  0.90930122    -0.33100
H4051       H  0.06222171  0.43988638  0.90756910     0.13800
H4052       H  0.04115808  0.45535778  0.92391449     0.13600
H4053       H  0.04405190  0.41813675  0.96303200     0.13500
H4054       H  0.06512325  0.40266179  0.94667797     0.12500
C4055       C  0.93811575  0.43985533  0.05250726     0.18900
C4056       C  0.92181621  0.44480890  0.05665252    -0.10300
C4057       C  0.91281999  0.43597209  0.06882152    -0.11100
C4058       C  0.92014537  0.42221440  0.07686289     0.20400
C4059       C  0.93634024  0.41711478  0.07253117    -0.13100
C4060       C  0.94532810  0.42594192  0.06037268    -0.11400
C4061       C  0.91122837  0.41350642  0.08979896     0.01400
C4062       C  0.90406262  0.40596077  0.10070686    -0.31400
C4063       C  0.94789894  0.44969254  0.04107726     0.02800
C4064       C  0.95683813  0.45850269  0.03271330    -0.33100
H4065       H  0.91620623  0.45564585  0.05071326     0.13800
H4066       H  0.90029223  0.43998969  0.07212331     0.13600
H4067       H  0.94208616  0.40648334  0.07871069     0.13500
H4068       H  0.95798308  0.42211789  0.05732610     0.12500
C4069       C  0.16775797  0.82393335  0.06914497     0.18900
C4070       C  0.16625551  0.82056468  0.05193261    -0.10300
C4071       C  0.17585208  0.80788947  0.04461685    -0.11100
C4072       C  0.18696392  0.79852264  0.05449295     0.20400
C4073       C  0.18833653  0.80178411  0.07173328    -0.13100
C4074       C  0.17873597  0.81445518  0.07904901    -0.11400
C4075       C  0.19755560  0.78619617  0.04676189     0.01400
C4076       C  0.20700682  0.77685797  0.03963560    -0.31400
C4077       C  0.15820133  0.83722233  0.07661444     0.02800
C4078       C  0.15020328  0.84831962  0.08296632    -0.33100
H4079       H  0.15780377  0.82782664  0.04416336     0.13800
H4080       H  0.17477233  0.80553855  0.03124972     0.13600
H4081       H  0.19696412  0.79468750  0.07945975     0.13500
H4082       H  0.17998494  0.81696649  0.09237196     0.12500
C4083       C  0.16549435  0.67270353  0.93560168     0.18900
C4084       C  0.16907641  0.66413946  0.95054894    -0.10300
C4085       C  0.17882930  0.67189371  0.96303925    -0.11100
C4086       C  0.18495776  0.68821753  0.96057273     0.20400
C4087       C  0.18122818  0.69677388  0.94568628    -0.13100
C4088       C  0.17152855  0.68904145  0.93323634    -0.11400
C4089       C  0.19570920  0.69615931  0.97277605     0.01400
C4090       C  0.20551452  0.70425521  0.98105274    -0.31400
C4091       C  0.15574406  0.66481068  0.92257457     0.02800
C4092       C  0.14759410  0.65854526  0.91142484    -0.33100
H4093       H  0.16444671  0.65148026  0.95247623     0.13800
H4094       H  0.18172333  0.66514166  0.97447380     0.13600
H4095       H  0.18598584  0.70936734  0.94362802     0.13500
H4096       H  0.16882803  0.69575298  0.92172621     0.12500
C4097       C  0.31242123  0.69733419  0.94534197     0.18900
C4098       C  0.32777330  0.70197030  0.93811745    -0.10300
C4099       C  0.33728955  0.69000414  0.92953763    -0.11100
C4100       C  0.33145443  0.67341319  0.92821755     0.20400
C4101       C  0.31612301  0.66884180  0.93543207    -0.13100
C4102       C  0.30663731  0.68076249  0.94396320    -0.11400
C4103       C  0.34091722  0.66101670  0.91927917     0.01400
C4104       C  0.34808179  0.65019346  0.91160903    -0.31400
C4105       C  0.30258978  0.70927669  0.95452591     0.02800
C4106       C  0.29340094  0.71777560  0.96292614    -0.33100
H4107       H  0.33237595  0.71475124  0.93915605     0.13800
H4108       H  0.34913029  0.69366380  0.92394973     0.13600
H4109       H  0.31149680  0.65606202  0.93444512     0.13500
H4110       H  0.29480945  0.67704372  0.94954310     0.12500
C4111       C  0.32097956  0.67482015  0.08360284     0.18900
C4112       C  0.31845802  0.69194986  0.08652226    -0.10300
C4113       C  0.30505122  0.70015648  0.07878310    -0.11100
C4114       C  0.29412678  0.69123648  0.06815394     0.20400
C4115       C  0.29650393  0.67405042  0.06546390    -0.13100
C4116       C  0.30989586  0.66584787  0.07320551    -0.11400
C4117       C  0.28154553  0.70003151  0.05876330     0.01400
C4118       C  0.27270427  0.70800394  0.04949816    -0.31400
C4119       C  0.33512093  0.66646118  0.09091209     0.02800
C4120       C  0.34678024  0.65885722  0.09670382    -0.33100
H4121       H  0.32699113  0.69899022  0.09452689     0.13800
H4122       H  0.30343253  0.71350225  0.08076784     0.13600
H4123       H  0.28825015  0.66709559  0.05710134     0.13500
H4124       H  0.31177588  0.65259429  0.07086846     0.12500
C4125       C  0.33309909  0.83041089  0.06089816     0.18900
C4126       C  0.31972345  0.83758072  0.05204188    -0.10300
C4127       C  0.31027629  0.82779318  0.04084997    -0.11100
C4128       C  0.31424768  0.81085552  0.03848517     0.20400
C4129       C  0.32780975  0.80379989  0.04711984    -0.13100
C4130       C  0.33723038  0.81356680  0.05830269    -0.11400
C4131       C  0.30361292  0.80028256  0.02840546     0.01400
C4132       C  0.29415216  0.79053923  0.02168790    -0.31400
C4133       C  0.34234269  0.84015114  0.07297605     0.02800
C4134       C  0.35014826  0.84810476  0.08324336    -0.33100
H4135       H  0.31643927  0.85060940  0.05400344     0.13800
H4136       H  0.29969237  0.83330397  0.03434965     0.13600
H4137       H  0.33085434  0.79066579  0.04549357     0.13500
H4138       H  0.34754060  0.80792599  0.06512495     0.12500
C4139       C  0.43371605  0.66610029  0.67404846     0.18900
C4140       C  0.43431730  0.66468985  0.69156721    -0.10300
C4141       C  0.44625150  0.67382988  0.70075965    -0.11100
C4142       C  0.45762992  0.68439178  0.69246175     0.20400
C4143       C  0.45726358  0.68550643  0.67491908    -0.13100
C4144       C  0.44533741  0.67635620  0.66572638    -0.11400
C4145       C  0.46869771  0.69505371  0.70205581     0.01400
C4146       C  0.47642056  0.70471754  0.71084818    -0.31400
C4147       C  0.42079536  0.65757824  0.66464949     0.02800
C4148       C  0.40985099  0.65083031  0.65657833    -0.33100
H4149       H  0.42536352  0.65681589  0.69812169     0.13800
H4150       H  0.44634425  0.67298189  0.71433792     0.13600
H4151       H  0.46591476  0.69373323  0.66839544     0.13500
H4152       H  0.44495065  0.67754255  0.65218007     0.12500
C4153       C  0.43984268  0.81051482  0.71298332     0.18900
C4154       C  0.42337396  0.80585745  0.70873856    -0.10300
C4155       C  0.41493985  0.81420921  0.69581283    -0.11100
C4156       C  0.42298961  0.82718554  0.68707920     0.20400
C4157       C  0.43935758  0.83198062  0.69148754    -0.13100
C4158       C  0.44777446  0.82365013  0.70439966    -0.11400
C4159       C  0.41460239  0.83554168  0.67350176     0.01400
C4160       C  0.40797884  0.84306248  0.66220225    -0.31400
C4161       C  0.44918236  0.80087216  0.72499420     0.02800
C4162       C  0.45791350  0.79180641  0.73331344    -0.33100
H4163       H  0.41720486  0.79557774  0.71517069     0.13800
H4164       H  0.40227204  0.81042069  0.69249066     0.13600
H4165       H  0.44567836  0.84200474  0.68480370     0.13500
H4166       H  0.46057398  0.82721011  0.70745148     0.12500
C4167       C  0.41908082  0.67518028  0.82921482     0.18900
C4168       C  0.41628112  0.69216269  0.83277680    -0.10300
C4169       C  0.42540262  0.70455383  0.82430225    -0.11100
C4170       C  0.43730925  0.69992716  0.81229297     0.20400
C4171       C  0.43993758  0.68295547  0.80863319    -0.13100
C4172       C  0.43084670  0.67060450  0.81708289    -0.11400
C4173       C  0.44710530  0.71237681  0.80373667     0.01400
C4174       C  0.45623033  0.72119436  0.79556660    -0.31400
C4175       C  0.41035605  0.66235675  0.83833049     0.02800
C4176       C  0.40368341  0.65128603  0.84612416    -0.33100
H4177       H  0.40721192  0.69578919  0.84218973     0.13800
H4178       H  0.42329191  0.71765877  0.82719459     0.13600
H4179       H  0.44912100  0.67927469  0.79934986     0.13500
H4180       H  0.43311121  0.65749987  0.81429237     0.12500
C4181       C  0.57775371  0.66422529  0.81900575     0.18900
C4182       C  0.57887205  0.66032796  0.80187066    -0.10300
C4183       C  0.56999189  0.66980203  0.79004339    -0.11100
C4184       C  0.55999456  0.68319191  0.79534678     0.20400
C4185       C  0.55884894  0.68700915  0.81248636    -0.13100
C4186       C  0.56770182  0.67756142  0.82427848    -0.11400
C4187       C  0.55072296  0.69309015  0.78344729     0.01400
C4188       C  0.54197469  0.70238532  0.77537308    -0.31400
C4189       C  0.58701453  0.65474045  0.83123047     0.02800
C4190       C  0.59472157  0.64724814  0.84186152    -0.33100
H4191       H  0.58662408  0.65003003  0.79767295     0.13800
H4192       H  0.57093361  0.66671872  0.77682906     0.13600
H4193       H  0.55112156  0.69731259  0.81672837     0.13500
H4194       H  0.56675330  0.68068219  0.83748944     0.12500
C4195       C  0.57967817  0.81561966  0.67667877     0.18900
C4196       C  0.58616602  0.79959571  0.67968724    -0.10300
C4197       C  0.57668581  0.78781697  0.68862720    -0.11100
C4198       C  0.56071718  0.79207357  0.69449963     0.20400
C4199       C  0.55425692  0.80808089  0.69141826    -0.13100
C4200       C  0.56371441  0.81982800  0.68251824    -0.11400
C4201       C  0.55102256  0.78038465  0.70418809     0.01400
C4202       C  0.54202820  0.77217844  0.71311699    -0.31400
C4203       C  0.58920461  0.82777234  0.66745247     0.02800
C4204       C  0.59646897  0.83827948  0.65941698    -0.33100
H4205       H  0.59850845  0.79624545  0.67516587     0.13800
H4206       H  0.58180692  0.77548671  0.69102598     0.13600
H4207       H  0.54194945  0.81150365  0.69598381     0.13500
H4208       H  0.55860291  0.83218595  0.68021296     0.12500
C4209       C  0.19757288  0.17808259  0.45977620     0.18900
C4210       C  0.18389463  0.16772182  0.46369506    -0.10300
C4211       C  0.17658402  0.15764694  0.45123458    -0.11100
C4212       C  0.18294196  0.15794532  0.43485814     0.20400
C4213       C  0.19668515  0.16821928  0.43098006    -0.13100
C4214       C  0.20399019  0.17826863  0.44342086    -0.11400
C4215       C  0.17510523  0.14809379  0.42190571     0.01400
C4216       C  0.16828624  0.14028123  0.41085893    -0.31400
C4217       C  0.20476650  0.18904420  0.47222232     0.02800
C4218       C  0.21156011  0.19937186  0.48099093    -0.33100
H4219       H  0.17880181  0.16756462  0.47628518     0.13800
H4220       H  0.16590641  0.14976926  0.45431154     0.13600
H4221       H  0.20163423  0.16857527  0.41833024     0.13500
H4222       H  0.21452038  0.18631327  0.44025608     0.12500
C4223       C  0.31726379  0.17788175  0.58613842     0.18900
C4224       C  0.30022981  0.17616397  0.59012667    -0.10300
C4225       C  0.28825619  0.18577060  0.58167063    -0.11100
C4226       C  0.29333645  0.19709983  0.56924374     0.20400
C4227       C  0.31038518  0.19888234  0.56536662    -0.13100
C4228       C  0.32233111  0.18928988  0.57379808    -0.11400
C4229       C  0.28119112  0.20649753  0.55988516     0.01400
C4230       C  0.27252589  0.21452493  0.55050935    -0.31400
C4231       C  0.32955941  0.16779468  0.59449013     0.02800
C4232       C  0.34005136  0.15930425  0.60119067    -0.33100
H4233       H  0.29621950  0.16733256  0.59965012     0.13800
H4234       H  0.27509003  0.18425388  0.58468451     0.13600
H4235       H  0.31441459  0.20755958  0.55570676     0.13500
H4236       H  0.33547764  0.19067079  0.57062047     0.12500
C4237       C  0.32429144  0.33843510  0.55904679     0.18900
C4238       C  0.33241845  0.32592433  0.54982404    -0.10300
C4239       C  0.32341512  0.31634676  0.53809884    -0.11100
C4240       C  0.30628078  0.31929125  0.53555168     0.20400
C4241       C  0.29824285  0.33202380  0.54454757    -0.13100
C4242       C  0.30723832  0.34158876  0.55626982    -0.11400
C4243       C  0.29656181  0.30816247  0.52510918     0.01400
C4244       C  0.28774964  0.29781809  0.51837758    -0.31400
C4245       C  0.33321421  0.34753549  0.57187528     0.02800
C4246       C  0.34030398  0.35487441  0.58309158    -0.33100
H4247       H  0.34559030  0.32334671  0.55195238     0.13800
H4248       H  0.32968555  0.30637569  0.53136839     0.13600
H4249       H  0.28494403  0.33424206  0.54283337     0.13500
H4250       H  0.30083219  0.35118297  0.56341036     0.12500
C4251       C  0.17966249  0.31816809  0.41275756     0.18900
C4252       C  0.19321241  0.32651142  0.42040551    -0.10300
C4253       C  0.20473715  0.31752649  0.43008544    -0.11100
C4254       C  0.20275560  0.30017400  0.43210181     0.20400
C4255       C  0.18930526  0.29181200  0.42430364    -0.13100
C4256       C  0.17778187  0.30079390  0.41463654    -0.11400
C4257       C  0.21385764  0.29108289  0.44298442     0.01400
C4258       C  0.22192178  0.28324714  0.45305498    -0.31400
C4259       C  0.16747336  0.32748562  0.40333754     0.02800
C4260       C  0.15719253  0.33548745  0.39571383    -0.33100
H4261       H  0.19473942  0.33995982  0.41905374     0.13800
H4262       H  0.21501802  0.32412275  0.43618407     0.13600
H4263       H  0.18758894  0.27841353  0.42590947     0.13500
H4264       H  0.16731461  0.29424493  0.40880998     0.12500
C4265       C  0.33078567  0.18070679  0.42746136     0.18900
C4266       C  0.33475329  0.18380541  0.44433757    -0.10300
C4267       C  0.32589000  0.19590846  0.45334755    -0.11100
C4268       C  0.31306104  0.20496477  0.44549201     0.20400
C4269       C  0.30921922  0.20198378  0.42856497    -0.13100
C4270       C  0.31808399  0.18988567  0.41955590    -0.11400
C4271       C  0.30303290  0.21638401  0.45510079     0.01400
C4272       C  0.29360920  0.22457383  0.46353327    -0.31400
C4273       C  0.33952096  0.16791202  0.41834423     0.02800
C4274       C  0.34672298  0.15711946  0.41067173    -0.33100
H4275       H  0.34453546  0.17673781  0.45056411     0.13800
H4276       H  0.32883691  0.19800223  0.46648174     0.13600
H4277       H  0.29920497  0.20880132  0.42242845     0.13500
H4278       H  0.31490961  0.18754883  0.40651404     0.12500
C4279       C  0.17352744  0.32896127  0.57214153     0.18900
C4280       C  0.17246508  0.32817411  0.55459662    -0.10300
C4281       C  0.17867124  0.31419699  0.54603855    -0.11100
C4282       C  0.18590092  0.30094164  0.55500976     0.20400
C4283       C  0.18658703  0.30156317  0.57257307    -0.13100
C4284       C  0.18038434  0.31553115  0.58112449    -0.11400
C4285       C  0.19408057  0.28755266  0.54618091     0.01400
C4286       C  0.20260565  0.27766953  0.53863472    -0.31400
C4287       C  0.16764732  0.34352640  0.58096201     0.02800
C4288       C  0.16224124  0.35523418  0.58881430    -0.33100
H4289       H  0.16711041  0.33846176  0.54754192     0.13800
H4290       H  0.17821818  0.31391370  0.53244139     0.13600
H4291       H  0.19228740  0.29145666  0.57961779     0.13500
H4292       H  0.18118439  0.31598381  0.59470241     0.12500
C4293       C  0.19595269  0.45472640  0.18042107     0.18900
C4294       C  0.17840499  0.45549337  0.18014135    -0.10300
C4295       C  0.16910696  0.44277250  0.17228740    -0.11100
C4296       C  0.17734676  0.42924676  0.16476029     0.20400
C4297       C  0.19489629  0.42859981  0.16483262    -0.13100
C4298       C  0.20418968  0.44131942  0.17267062    -0.11400
C4299       C  0.16779376  0.41590078  0.15721706     0.01400
C4300       C  0.15967094  0.40478852  0.15088084    -0.31400
C4301       C  0.20548862  0.46681670  0.18988756     0.02800
C4302       C  0.21402449  0.47525599  0.19913960    -0.33100
H4303       H  0.17192958  0.46571600  0.18626850     0.13800
H4304       H  0.15552531  0.44335077  0.17228938     0.13600
H4305       H  0.20136212  0.41816839  0.15905287     0.13500
H4306       H  0.21775776  0.44052839  0.17299424     0.12500
C4307       C  0.32574810  0.57662315  0.16713418     0.18900
C4308       C  0.32418354  0.57883972  0.18449158    -0.10300
C4309       C  0.31161634  0.57030883  0.19322764    -0.11100
C4310       C  0.30056329  0.55957319  0.18461996     0.20400
C4311       C  0.30191899  0.55759989  0.16720215    -0.13100
C4312       C  0.31449428  0.56615256  0.15845353    -0.11400
C4313       C  0.28879158  0.54961753  0.19391870     0.01400
C4314       C  0.28047906  0.54050175  0.20261593    -0.31400
C4315       C  0.33904132  0.58493551  0.15831254     0.02800
C4316       C  0.35005066  0.59221936  0.15099340    -0.33100
H4317       H  0.33282279  0.58694376  0.19128765     0.13800
H4318       H  0.31073969  0.57179956  0.20672192     0.13600
H4319       H  0.29350572  0.54921379  0.16046983     0.13500
H4320       H  0.31560949  0.56440791  0.14500917     0.12500
C4321       C  0.32791059  0.57303009  0.32410137     0.18900
C4322       C  0.33528597  0.55722618  0.32213773    -0.10300
C4323       C  0.32648715  0.54431492  0.31397344    -0.11100
C4324       C  0.31027797  0.54717330  0.30778713     0.20400
C4325       C  0.30280419  0.56288923  0.31003187    -0.13100
C4326       C  0.31159762  0.57578740  0.31817270    -0.11400
C4327       C  0.30158815  0.53442793  0.29828214     0.01400
C4328       C  0.29365264  0.52514609  0.28926148    -0.31400
C4329       C  0.33721329  0.58652627  0.33180666     0.02800
C4330       C  0.34519932  0.59777411  0.33814864    -0.33100
H4331       H  0.34790360  0.55497310  0.32668662     0.13800
H4332       H  0.33241014  0.53223972  0.31223258     0.13600
H4333       H  0.29030252  0.56525628  0.30522177     0.13500
H4334       H  0.30578532  0.58795769  0.31962295     0.12500
C4335       C  0.18475640  0.41732136  0.32187786     0.18900
C4336       C  0.18127652  0.42185216  0.30526312    -0.10300
C4337       C  0.19271315  0.43167115  0.29633959    -0.11100
C4338       C  0.20767453  0.43700123  0.30399692     0.20400
C4339       C  0.21122679  0.43240247  0.32059920    -0.13100
C4340       C  0.19976326  0.42255075  0.32954345    -0.11400
C4341       C  0.21900811  0.44760822  0.29484886     0.01400
C4342       C  0.22729186  0.45694853  0.28635073    -0.31400
C4343       C  0.17266708  0.40764109  0.33105340     0.02800
C4344       C  0.16182811  0.39988398  0.33815484    -0.33100
H4345       H  0.16967098  0.41790764  0.29926577     0.13800
H4346       H  0.18982992  0.43523155  0.28352816     0.13600
H4347       H  0.22273963  0.43653627  0.32663967     0.13500
H4348       H  0.20251866  0.41913557  0.34242027     0.12500
C4349       C  0.19058523  0.56297347  0.27995446     0.18900
C4350       C  0.19519215  0.57979423  0.28237931    -0.10300
C4351       C  0.18644132  0.58967832  0.29386303    -0.11100
C4352       C  0.17311446  0.58273979  0.30297913     0.20400
C4353       C  0.16830887  0.56601356  0.30033320    -0.13100
C4354       C  0.17705025  0.55613476  0.28884553    -0.11400
C4355       C  0.16473678  0.59262433  0.31541689     0.01400
C4356       C  0.15791511  0.60096917  0.32594540    -0.31400
C4357       C  0.20065499  0.55231127  0.26958156     0.02800
C4358       C  0.20995430  0.54267366  0.26270848    -0.33100
H4359       H  0.20576388  0.58513561  0.27570079     0.13800
H4360       H  0.19025455  0.60260407  0.29586648     0.13600
H4361       H  0.15803630  0.56054086  0.30736368     0.13500
H4362       H  0.17352244  0.54308232  0.28719020     0.12500
C4363       C  0.33211129  0.41161317  0.18500101     0.18900
C4364       C  0.33981786  0.42564074  0.19241295    -0.10300
C4365       C  0.33074883  0.43591747  0.20329481    -0.11100
C4366       C  0.31393452  0.43220398  0.20683913     0.20400
C4367       C  0.30630381  0.41797682  0.19969051    -0.13100
C4368       C  0.31538328  0.40769041  0.18879168    -0.11400
C4369       C  0.30425165  0.44360550  0.21687322     0.01400
C4370       C  0.29576656  0.45376939  0.22410243    -0.31400
C4371       C  0.34110672  0.40185845  0.17282082     0.02800
C4372       C  0.34855880  0.39438563  0.16202329    -0.33100
H4373       H  0.35271656  0.42883039  0.18950078     0.13800
H4374       H  0.33673222  0.44694566  0.20865448     0.13600
H4375       H  0.29326649  0.41505383  0.20224933     0.13500
H4376       H  0.30927532  0.39691884  0.18305646     0.12500
C4377       C  0.94354988  0.21095109  0.79672472     0.18900
C4378       C  0.92654439  0.20803036  0.79317599    -0.10300
C4379       C  0.91787018  0.19521444  0.80149343    -0.11100
C4380       C  0.92619508  0.18525241  0.81333712     0.20400
C4381       C  0.94315571  0.18826843  0.81697409    -0.13100
C4382       C  0.95181871  0.20107754  0.80867342    -0.11400
C4383       C  0.91735504  0.17200277  0.82183546     0.01400
C4384       C  0.90990075  0.16117279  0.82932779    -0.31400
C4385       C  0.95282888  0.22333138  0.78742040     0.02800
C4386       C  0.96145294  0.23243586  0.77896910    -0.33100
H4387       H  0.92006935  0.21550537  0.78385982     0.13800
H4388       H  0.90473976  0.19300127  0.79861919     0.13600
H4389       H  0.94969626  0.18065577  0.82613146     0.13500
H4390       H  0.96500142  0.20314392  0.81141133     0.12500
C4391       C  0.81926729  0.21399183  0.92764794     0.18900
C4392       C  0.80979045  0.20480579  0.91591880    -0.10300
C4393       C  0.81751967  0.19284656  0.90574147    -0.11100
C4394       C  0.83477700  0.18998834  0.90723483     0.20400
C4395       C  0.84436813  0.19948130  0.91864452    -0.13100
C4396       C  0.83662039  0.21145618  0.92885511    -0.11400
C4397       C  0.84241629  0.17678061  0.89763510     0.01400
C4398       C  0.84863126  0.16535937  0.88994562    -0.31400
C4399       C  0.81082820  0.22485782  0.93930975     0.02800
C4400       C  0.80241361  0.23225248  0.94943586    -0.33100
H4401       H  0.79634818  0.20656550  0.91496309     0.13800
H4402       H  0.80998013  0.18556173  0.89699529     0.13600
H4403       H  0.85772672  0.19734654  0.91992426     0.13500
H4404       H  0.84405552  0.21838875  0.93796583     0.12500
C4405       C  0.54373882  0.94286191  0.93651950     0.18900
C4406       C  0.55108521  0.93048395  0.94657067    -0.10300
C4407       C  0.56268833  0.91938820  0.93966896    -0.11100
C4408       C  0.56699250  0.92064100  0.92269191     0.20400
C4409       C  0.55948961  0.93287333  0.91257136    -0.13100
C4410       C  0.54788176  0.94398798  0.91948220    -0.11400
C4411       C  0.57956684  0.90980916  0.91583197     0.01400
C4412       C  0.59051836  0.90119751  0.91011534    -0.31400
C4413       C  0.53284605  0.95502165  0.94403575     0.02800
C4414       C  0.52503819  0.96553975  0.95148453    -0.33100
H4415       H  0.54806952  0.92961066  0.95979623     0.13800
H4416       H  0.56848482  0.91002107  0.94760868     0.13600
H4417       H  0.56280647  0.93397835  0.89943764     0.13500
H4418       H  0.54237876  0.95361109  0.91164380     0.12500
C4419       C  0.54683149  0.79915021  0.82193682     0.18900
C4420       C  0.56370944  0.79467231  0.82016841    -0.10300
C4421       C  0.57606613  0.80272704  0.82975980    -0.11100
C4422       C  0.57158425  0.81527909  0.84117099     0.20400
C4423       C  0.55468646  0.81963762  0.84310643    -0.13100
C4424       C  0.54230758  0.81157142  0.83349558    -0.11400
C4425       C  0.58437582  0.82409071  0.85042909     0.01400
C4426       C  0.59495959  0.83208816  0.85778096    -0.31400
C4427       C  0.53439104  0.79127770  0.81141545     0.02800
C4428       C  0.52539802  0.78406007  0.80156412    -0.33100
H4429       H  0.56732900  0.78510595  0.81122324     0.13800
H4430       H  0.58910441  0.79932089  0.82813875     0.13600
H4431       H  0.55112542  0.82939003  0.85187093     0.13500
H4432       H  0.52929528  0.81514839  0.83491501     0.12500
C4433       C  0.81503039  0.54355459  0.80726692     0.18900
C4434       C  0.83241060  0.54436902  0.80473889    -0.10300
C4435       C  0.84201571  0.55660813  0.81303546    -0.11100
C4436       C  0.83422880  0.56807406  0.82380392     0.20400
C4437       C  0.81690665  0.56707698  0.82650413    -0.13100
C4438       C  0.80732769  0.55485673  0.81824340    -0.11400
C4439       C  0.84386872  0.58094666  0.83208273     0.01400
C4440       C  0.85132699  0.59175794  0.83966751    -0.31400
C4441       C  0.80480402  0.53219081  0.79758280     0.02800
C4442       C  0.79531135  0.52449190  0.78859924    -0.33100
H4443       H  0.83845516  0.53578951  0.79613677     0.13800
H4444       H  0.85542229  0.55727114  0.81089968     0.13600
H4445       H  0.81078485  0.57587404  0.83482943     0.13500
H4446       H  0.79387498  0.55443795  0.82014661     0.12500
C4447       C  0.93669166  0.53946726  0.94309376     0.18900
C4448       C  0.94012298  0.54106731  0.92593626    -0.10300
C4449       C  0.93176605  0.55315227  0.91640285    -0.11100
C4450       C  0.92000982  0.56367662  0.92402967     0.20400
C4451       C  0.91637498  0.56187318  0.94111716    -0.13100
C4452       C  0.92471453  0.54979182  0.95063916    -0.11400
C4453       C  0.91212790  0.57672852  0.91450628     0.01400
C4454       C  0.90574075  0.58795994  0.90673448    -0.31400
C4455       C  0.94644036  0.52833015  0.95330104     0.02800
C4456       C  0.95544111  0.52068291  0.96267906    -0.33100
H4457       H  0.94950113  0.53325763  0.92003867     0.13800
H4458       H  0.93468794  0.55450403  0.90319763     0.13600
H4459       H  0.90734297  0.57000074  0.94712805     0.13500
H4460       H  0.92211590  0.54876326  0.96394381     0.12500
C4461       C  0.93742629  0.93628598  0.54710442     0.18900
C4462       C  0.93924078  0.91890475  0.54881379    -0.10300
C4463       C  0.93070648  0.91038454  0.56153439    -0.11100
C4464       C  0.92039202  0.91924042  0.57260354     0.20400
C4465       C  0.91836045  0.93657628  0.57072724    -0.13100
C4466       C  0.92688833  0.94509551  0.55800325    -0.11400
C4467       C  0.91207394  0.91057145  0.58600263     0.01400
C4468       C  0.90495466  0.90314005  0.59704543    -0.31400
C4469       C  0.94735183  0.94526282  0.53505724     0.02800
C4470       C  0.95677562  0.95315848  0.52629127    -0.33100
H4471       H  0.94747833  0.91201372  0.54053346     0.13800
H4472       H  0.93232666  0.89696513  0.56288834     0.13600
H4473       H  0.91039067  0.94351772  0.57922745     0.13500
H4474       H  0.92552535  0.95856524  0.55686526     0.12500
C4475       C  0.80514130  0.81384074  0.54469875     0.18900
C4476       C  0.82135954  0.80820630  0.54837368    -0.10300
C4477       C  0.83089777  0.81618397  0.56083242    -0.11100
C4478       C  0.82421976  0.82978864  0.56966199     0.20400
C4479       C  0.80805938  0.83551833  0.56588941    -0.13100
C4480       C  0.79852058  0.82754154  0.55342847    -0.11400
C4481       C  0.83380491  0.83767745  0.58279703     0.01400
C4482       C  0.84161611  0.84432664  0.59395714    -0.31400
C4483       C  0.79495177  0.80491554  0.53272129     0.02800
C4484       C  0.78616060  0.79643378  0.52374419    -0.33100
H4485       H  0.82652241  0.79752335  0.54178234     0.13800
H4486       H  0.84337467  0.81165044  0.56369871     0.13600
H4487       H  0.80278592  0.84601240  0.57269247     0.13500
H4488       H  0.78593210  0.83188978  0.55076968     0.12500
C4489       C  0.80969729  0.95201987  0.19815328     0.18900
C4490       C  0.81387520  0.93521775  0.20100458    -0.10300
C4491       C  0.82269669  0.92623909  0.18882680    -0.11100
C4492       C  0.82731753  0.93403214  0.17376223     0.20400
C4493       C  0.82336575  0.95090290  0.17103299    -0.13100
C4494       C  0.81456203  0.95987708  0.18320414    -0.11400
C4495       C  0.83576903  0.92461640  0.16096870     0.01400
C4496       C  0.84277311  0.91644038  0.15039913    -0.31400
C4497       C  0.79959837  0.96098783  0.21003078     0.02800
C4498       C  0.79021532  0.96894863  0.21872520    -0.33100
H4499       H  0.81008618  0.92900598  0.21248182     0.13800
H4500       H  0.82570362  0.91318630  0.19104301     0.13600
H4501       H  0.82687981  0.95703263  0.15942333     0.13500
H4502       H  0.81130323  0.97284345  0.18084481     0.12500
C4503       C  0.91216997  0.83452437  0.18160397     0.18900
C4504       C  0.91735522  0.84324793  0.19603802    -0.10300
C4505       C  0.92621115  0.83489384  0.20868037    -0.11100
C4506       C  0.92983119  0.81780995  0.20689388     0.20400
C4507       C  0.92430611  0.80904287  0.19262765    -0.13100
C4508       C  0.91549708  0.81738127  0.18000780    -0.11400
C4509       C  0.94051038  0.80947337  0.21874636     0.01400
C4510       C  0.95066580  0.80141802  0.22644861    -0.31400
C4511       C  0.90400328  0.84320827  0.16811819     0.02800
C4512       C  0.89751764  0.85033376  0.15649346    -0.33100
H4513       H  0.91486060  0.85653408  0.19734626     0.13800
H4514       H  0.93058537  0.84181282  0.21958919     0.13600
H4515       H  0.92719887  0.79586473  0.19105995     0.13500
H4516       H  0.91157697  0.81055127  0.16887170     0.12500
C4517       C  0.20647040  0.94237977  0.81800815     0.18900
C4518       C  0.19502171  0.95173078  0.82744339    -0.10300
C4519       C  0.18304609  0.94354520  0.83730177    -0.11100
C4520       C  0.18249327  0.92598998  0.83772835     0.20400
C4521       C  0.19417126  0.91664817  0.82858431    -0.13100
C4522       C  0.20613574  0.92483104  0.81871708    -0.11400
C4523       C  0.16957619  0.91748809  0.84696598     0.01400
C4524       C  0.15881717  0.90965843  0.85412734    -0.31400
C4525       C  0.21759995  0.95079572  0.80661721     0.02800
C4526       C  0.22543515  0.95847240  0.79624390    -0.33100
H4527       H  0.19510157  0.96531405  0.82686097     0.13800
H4528       H  0.17403758  0.95086923  0.84430162     0.13600
H4529       H  0.19380404  0.90305717  0.82881937     0.13500
H4530       H  0.21484495  0.91749456  0.81135956     0.12500
C4531       C  0.18848264  0.82571544  0.92079541     0.18900
C4532       C  0.19495827  0.81139249  0.91298876    -0.10300
C4533       C  0.20736349  0.80198831  0.92103088    -0.11100
C4534       C  0.21333262  0.80692832  0.93686087     0.20400
C4535       C  0.20721957  0.82153803  0.94441599    -0.13100
C4536       C  0.19482730  0.83092858  0.93638404    -0.11400
C4537       C  0.22420930  0.79609085  0.94621639     0.01400
C4538       C  0.23137910  0.78654901  0.95542682    -0.31400
C4539       C  0.17481200  0.83464661  0.91324509     0.02800
C4540       C  0.16316245  0.84218859  0.90732716    -0.33100
H4541       H  0.19010468  0.80725783  0.90093575     0.13800
H4542       H  0.21188313  0.79060225  0.91518114     0.13600
H4543       H  0.21162505  0.82535255  0.95674340     0.13500
H4544       H  0.18987772  0.84197860  0.94252004     0.12500
C4545       C  0.94056568  0.93088985  0.73320891     0.18900
C4546       C  0.93383667  0.91486732  0.73608310    -0.10300
C4547       C  0.92459214  0.90673329  0.72347763    -0.11100
C4548       C  0.92205058  0.91460422  0.70796624     0.20400
C4549       C  0.92879907  0.93060826  0.70509310    -0.13100
C4550       C  0.93803490  0.93873897  0.71769169    -0.11400
C4551       C  0.91255840  0.90630208  0.69497059     0.01400
C4552       C  0.90467194  0.89957404  0.68388171    -0.31400
C4553       C  0.94961283  0.93948173  0.74633801     0.02800
C4554       C  0.95654115  0.94683966  0.75765550    -0.33100
H4555       H  0.93565580  0.90872364  0.74807311     0.13800
H4556       H  0.91941278  0.89435937  0.72582353     0.13600
H4557       H  0.92689398  0.93679743  0.69313977     0.13500
H4558       H  0.94311580  0.95115724  0.71537308     0.12500
C4559       C  0.04731369  0.91859406  0.83728606     0.18900
C4560       C  0.04852907  0.92129183  0.81995902    -0.10300
C4561       C  0.03547596  0.92917800  0.81132272    -0.11100
C4562       C  0.02115702  0.93440745  0.81997747     0.20400
C4563       C  0.01990255  0.93165694  0.83730344    -0.13100
C4564       C  0.03296483  0.92375811  0.84594587    -0.11400
C4565       C  0.00777599  0.94253497  0.81103304     0.01400
C4566       C  0.99661713  0.94915427  0.80329207    -0.31400
C4567       C  0.06078851  0.91051960  0.84612869     0.02800
C4568       C  0.07213889  0.90363438  0.85334391    -0.33100
H4569       H  0.05956148  0.91732252  0.81314613     0.13800
H4570       H  0.03655256  0.93121611  0.79792198     0.13600
H4571       H  0.00886469  0.93562312  0.84410848     0.13500
H4572       H  0.03189432  0.92169817  0.85934406     0.12500
C4573       C  0.94116293  0.02037478  0.80863706     0.18900
C4574       C  0.92361100  0.02126292  0.80859552    -0.10300
C4575       C  0.91562365  0.03528336  0.81536707    -0.11100
C4576       C  0.92515370  0.04847084  0.82219991     0.20400
C4577       C  0.94270715  0.04758458  0.82226490    -0.13100
C4578       C  0.95070047  0.03355130  0.81549459    -0.11400
C4579       C  0.91685950  0.06280386  0.82923780     0.01400
C4580       C  0.90942696  0.07448072  0.83522817    -0.31400
C4581       C  0.94934587  0.00584461  0.80185875     0.02800
C4582       C  0.95599449  0.99341893  0.79648342    -0.33100
H4583       H  0.91611916  0.01111686  0.80337329     0.13800
H4584       H  0.90203972  0.03583457  0.81530258     0.13600
H4585       H  0.95018549  0.05770318  0.82755728     0.13500
H4586       H  0.96428011  0.03295667  0.81563428     0.12500
C4587       C  0.92477422  0.69885014  0.92614639     0.18900
C4588       C  0.92655359  0.71445940  0.91827744    -0.10300
C4589       C  0.93472426  0.72765230  0.92658720    -0.11100
C4590       C  0.94115333  0.72529534  0.94280357     0.20400
C4591       C  0.93938172  0.70968009  0.95068427    -0.13100
C4592       C  0.93120328  0.69646944  0.94236231    -0.11400
C4593       C  0.94941985  0.73897413  0.95133352     0.01400
C4594       C  0.95604831  0.75083167  0.95809928    -0.31400
C4595       C  0.91627557  0.68537529  0.91754631     0.02800
C4596       C  0.90896092  0.67455688  0.90981112    -0.33100
H4597       H  0.92160634  0.71642819  0.90574495     0.13800
H4598       H  0.93600276  0.73968314  0.92039223     0.13600
H4599       H  0.94428585  0.70773754  0.96323404     0.13500
H4600       H  0.92987267  0.68444460  0.94855599     0.12500
C4601       C  0.91812133  0.82730466  0.04758962     0.18900
C4602       C  0.91291607  0.82710480  0.03077056    -0.10300
C4603       C  0.92230341  0.81850195  0.01875523    -0.11100
C4604       C  0.93694885  0.81006221  0.02349149     0.20400
C4605       C  0.94206558  0.81009874  0.04034752    -0.13100
C4606       C  0.93266617  0.81870894  0.05237641    -0.11400
C4607       C  0.94674295  0.80157295  0.01096525     0.01400
C4608       C  0.95441916  0.79473164  0.99990734    -0.31400
C4609       C  0.90886560  0.83681317  0.05978296     0.02800
C4610       C  0.90141807  0.84529148  0.06982092    -0.33100
H4611       H  0.90171869  0.83374413  0.02692471     0.13800
H4612       H  0.91822554  0.81854735  0.00575965     0.13600
H4613       H  0.95336151  0.80360714  0.04415260     0.13500
H4614       H  0.93682482  0.81882063  0.06534646     0.12500
C4615       C  0.05146836  0.82448337  0.92720979     0.18900
C4616       C  0.03538615  0.82530248  0.92009657    -0.10300
C4617       C  0.02179928  0.81761367  0.92811206    -0.11100
C4618       C  0.02423364  0.80908910  0.94328880     0.20400
C4619       C  0.04031368  0.80830280  0.95042628    -0.13100
C4620       C  0.05391284  0.81599305  0.94240100    -0.11400
C4621       C  0.01023363  0.80114591  0.95148724     0.01400
C4622       C  0.99834797  0.79454165  0.95813125    -0.31400
C4623       C  0.06534880  0.83253646  0.91895610     0.02800
C4624       C  0.07637589  0.83986241  0.91163826    -0.33100
H4625       H  0.03335927  0.83188827  0.90837677     0.13800
H4626       H  0.00941897  0.81831194  0.92248988     0.13600
H4627       H  0.04232802  0.80175353  0.96216444     0.13500
H4628       H  0.06629348  0.81533102  0.94802513     0.12500
C4629       C  0.82795756  0.05347011  0.90682418     0.18900
C4630       C  0.81574801  0.05656841  0.91904620    -0.10300
C4631       C  0.80848772  0.04320225  0.92787125    -0.11100
C4632       C  0.81341259  0.02667208  0.92453442     0.20400
C4633       C  0.82549495  0.02357243  0.91219022    -0.13100
C4634       C  0.83274577  0.03692761  0.90336915    -0.11400
C4635       C  0.80619621  0.01291076  0.93383241     0.01400
C4636       C  0.80018873  0.00126790  0.94145575    -0.31400
C4637       C  0.83594578  0.06720483  0.89813631     0.02800
C4638       C  0.84340048  0.07823103  0.89086279    -0.33100
H4639       H  0.81196018  0.06929875  0.92185038     0.13800
H4640       H  0.79914266  0.04576058  0.93736572     0.13600
H4641       H  0.82939261  0.01085600  0.90947317     0.13500
H4642       H  0.84218780  0.03437176  0.89396744     0.12500
C4643       C  0.70163654  0.92712098  0.92010325     0.18900
C4644       C  0.71756150  0.92503696  0.91305798    -0.10300
C4645       C  0.73135487  0.93370522  0.91971307    -0.11100
C4646       C  0.72928147  0.94449031  0.93344388     0.20400
C4647       C  0.71332647  0.94667721  0.94042527    -0.13100
C4648       C  0.69951085  0.93799346  0.93376037    -0.11400
C4649       C  0.74361823  0.95303707  0.94047417     0.01400
C4650       C  0.75604499  0.95970780  0.94607451    -0.31400
C4651       C  0.68767523  0.91763337  0.91360554     0.02800
C4652       C  0.67668026  0.90882492  0.90798347    -0.33100
H4653       H  0.71933257  0.91659980  0.90253444     0.13800
H4654       H  0.74364316  0.93190654  0.91424451     0.13600
H4655       H  0.71160270  0.95496972  0.95106565     0.13500
H4656       H  0.68724470  0.93962670  0.93932951     0.12500
C4657       C  0.83315004  0.92869167  0.03829622     0.18900
C4658       C  0.83526841  0.92265731  0.02190911    -0.10300
C4659       C  0.82733525  0.93063734  0.00843312    -0.11100
C4660       C  0.81724442  0.94469542  0.01127525     0.20400
C4661       C  0.81512732  0.95072850  0.02766833    -0.13100
C4662       C  0.82306345  0.94274652  0.04114784    -0.11400
C4663       C  0.80904321  0.95287241  0.99738819     0.01400
C4664       C  0.80214145  0.95951806  0.98566239    -0.31400
C4665       C  0.84114290  0.92032588  0.05216940     0.02800
C4666       C  0.84766236  0.91302155  0.06371023    -0.33100
H4667       H  0.84300638  0.91177485  0.01956427     0.13800
H4668       H  0.82905038  0.92584470  0.99582045     0.13600
H4669       H  0.80734175  0.96157185  0.03002305     0.13500
H4670       H  0.82130672  0.94749530  0.05377189     0.12500
C4671       C  0.81760697  0.73075343  0.81708169     0.18900
C4672       C  0.81135665  0.71436857  0.81537115    -0.10300
C4673       C  0.81984886  0.70097708  0.82280221    -0.11100
C4674       C  0.83461696  0.70392454  0.83197029     0.20400
C4675       C  0.84077493  0.72033045  0.83383298    -0.13100
C4676       C  0.83228222  0.73372409  0.82640013    -0.11400
C4677       C  0.84348106  0.69011765  0.83938359     0.01400
C4678       C  0.85087773  0.67859537  0.84573300    -0.31400
C4679       C  0.80901558  0.74449360  0.80922615     0.02800
C4680       C  0.80178098  0.75607739  0.80281502    -0.33100
H4681       H  0.79999218  0.71194526  0.80823212     0.13800
H4682       H  0.81496409  0.68833952  0.82133073     0.13600
H4683       H  0.85216268  0.72274372  0.84094055     0.13500
H4684       H  0.83719170  0.74635607  0.82783810     0.12500
C4685       C  0.70664552  0.82526257  0.84130218     0.18900
C4686       C  0.71444301  0.83433755  0.82844024    -0.10300
C4687       C  0.72785388  0.82734226  0.81969626    -0.11100
C4688       C  0.73350091  0.81126112  0.82381138     0.20400
C4689       C  0.72576625  0.80221214  0.83673713    -0.13100
C4690       C  0.71234106  0.80921096  0.84548343    -0.11400
C4691       C  0.74712701  0.80399758  0.81467158     0.01400
C4692       C  0.75847084  0.79783337  0.80694691    -0.31400
C4693       C  0.69277108  0.83246677  0.85010422     0.02800
C4694       C  0.68124284  0.83910706  0.85714041    -0.33100
H4695       H  0.71011858  0.84677356  0.82514745     0.13800
H4696       H  0.73376982  0.83442483  0.80971600     0.13600
H4697       H  0.73006765  0.78975983  0.83999468     0.13500
H4698       H  0.70638326  0.80211642  0.85542895     0.12500
C4699       C  0.80683145  0.81047020  0.73100735     0.18900
C4700       C  0.79792963  0.82228571  0.72153766    -0.10300
C4701       C  0.80573686  0.83041094  0.70807785    -0.11100
C4702       C  0.82243688  0.82672115  0.70412397     0.20400
C4703       C  0.83118122  0.81468903  0.71339934    -0.13100
C4704       C  0.82339741  0.80658393  0.72680970    -0.11400
C4705       C  0.83094646  0.83564084  0.69101935     0.01400
C4706       C  0.83891747  0.84297052  0.68050561    -0.31400
C4707       C  0.79943468  0.80287799  0.74556048     0.02800
C4708       C  0.79438920  0.79667133  0.75836090    -0.33100
H4709       H  0.78512102  0.82541481  0.72473722     0.13800
H4710       H  0.79888976  0.83973409  0.70097191     0.13600
H4711       H  0.84410536  0.81178818  0.71044407     0.13500
H4712       H  0.83039185  0.79751214  0.73409728     0.12500
C4713       C  0.45579122  0.18199213  0.19281667     0.18900
C4714       C  0.43928206  0.18185698  0.19881650    -0.10300
C4715       C  0.42663212  0.17359097  0.18978530    -0.11100
C4716       C  0.43044061  0.16542269  0.17471356     0.20400
C4717       C  0.44698687  0.16535145  0.16880892    -0.13100
C4718       C  0.45965548  0.17363368  0.17785078    -0.11400
C4719       C  0.41728546  0.15758345  0.16506567     0.01400
C4720       C  0.40628736  0.15136593  0.15666071    -0.31400
C4721       C  0.46850139  0.19124213  0.20182226     0.02800
C4722       C  0.47785873  0.19985281  0.21011297    -0.33100
H4723       H  0.43615800  0.18832412  0.21035855     0.13800
H4724       H  0.41387198  0.17374422  0.19443263     0.13600
H4725       H  0.45003688  0.15908955  0.15713532     0.13500
H4726       H  0.47236924  0.17370343  0.17308401     0.12500
C4727       C  0.57369354  0.32552725  0.32813313     0.18900
C4728       C  0.56486135  0.33167128  0.31421863    -0.10300
C4729       C  0.55304655  0.32148233  0.30602378    -0.11100
C4730       C  0.55000471  0.30513397  0.31174383     0.20400
C4731       C  0.55867997  0.29907947  0.32579532    -0.13100
C4732       C  0.57049207  0.30926528  0.33398626    -0.11400
C4733       C  0.53892104  0.29417359  0.30250942     0.01400
C4734       C  0.53097452  0.28444661  0.29398718    -0.31400
C4735       C  0.58628970  0.33575809  0.33616684     0.02800
C4736       C  0.59692815  0.34437119  0.34272927    -0.33100
H4737       H  0.56727167  0.34422627  0.30958147     0.13800
H4738       H  0.54651630  0.32623036  0.29507681     0.13600
H4739       H  0.55653065  0.28640428  0.33022495     0.13500
H4740       H  0.57727951  0.30439481  0.34471978     0.12500
C4741       C  0.56945859  0.15607947  0.32761159     0.18900
C4742       C  0.57972307  0.16510440  0.31655043    -0.10300
C4743       C  0.57257021  0.17397111  0.30322249    -0.11100
C4744       C  0.55514225  0.17376941  0.30089224     0.20400
C4745       C  0.54492074  0.16442398  0.31172422    -0.13100
C4746       C  0.55207114  0.15557165  0.32505681    -0.11400
C4747       C  0.54759008  0.18426765  0.28836995     0.01400
C4748       C  0.54062029  0.19416034  0.27937022    -0.31400
C4749       C  0.57677382  0.14766671  0.34176056     0.02800
C4750       C  0.58352954  0.14066156  0.35331314    -0.33100
H4751       H  0.59319588  0.16553605  0.31841940     0.13800
H4752       H  0.58056305  0.18127605  0.29499726     0.13600
H4753       H  0.53141313  0.16431147  0.31010175     0.13500
H4754       H  0.54404120  0.14860592  0.33353295     0.12500
C4755       C  0.58899792  0.30502996  0.17645775     0.18900
C4756       C  0.57916971  0.29313230  0.16789538    -0.10300
C4757       C  0.57115898  0.28031729  0.17680086    -0.11100
C4758       C  0.57302066  0.27935896  0.19426360     0.20400
C4759       C  0.58312459  0.29107081  0.20276959    -0.13100
C4760       C  0.59112254  0.30388430  0.19386980    -0.11400
C4761       C  0.56318201  0.26756102  0.20365781     0.01400
C4762       C  0.55352336  0.25958312  0.21207704    -0.31400
C4763       C  0.59666297  0.31857851  0.16743631     0.02800
C4764       C  0.60316451  0.32983531  0.15976448    -0.33100
H4765       H  0.57747269  0.29393995  0.15441534     0.13800
H4766       H  0.56319362  0.27144153  0.17015257     0.13600
H4767       H  0.58445795  0.29055312  0.21630402     0.13500
H4768       H  0.59870551  0.31304672  0.20057750     0.12500
C4769       C  0.45073926  0.30674556  0.20588415     0.18900
C4770       C  0.45899190  0.31766687  0.19485955    -0.10300
C4771       C  0.44982333  0.32652638  0.18285146    -0.11100
C4772       C  0.43239563  0.32445234  0.18183590     0.20400
C4773       C  0.42410238  0.31373103  0.19302544    -0.13100
C4774       C  0.43327368  0.30486458  0.20503412    -0.11400
C4775       C  0.42307104  0.33296102  0.16903744     0.01400
C4776       C  0.41497111  0.33978042  0.15829466    -0.31400
C4777       C  0.46033238  0.29654553  0.21715696     0.02800
C4778       C  0.46871746  0.28701917  0.22527791    -0.33100
H4779       H  0.47251867  0.31907176  0.19533336     0.13800
H4780       H  0.45632727  0.33477168  0.17421420     0.13600
H4781       H  0.41061638  0.31203868  0.19229129     0.13500
H4782       H  0.42681220  0.29632236  0.21341278     0.12500
C4783       C  0.42217515  0.18144444  0.33129371     0.18900
C4784       C  0.43901391  0.18480257  0.33522004    -0.10300
C4785       C  0.44792035  0.19697501  0.32623952    -0.11100
C4786       C  0.44003854  0.20588448  0.31329868     0.20400
C4787       C  0.42313840  0.20266624  0.30947795    -0.13100
C4788       C  0.41421464  0.19048684  0.31848295    -0.11400
C4789       C  0.44978309  0.21714610  0.30306494     0.01400
C4790       C  0.45921385  0.22457653  0.29386320    -0.31400
C4791       C  0.41320434  0.16853094  0.34022277     0.02800
C4792       C  0.40585506  0.15762198  0.34773941    -0.33100
H4793       H  0.44530888  0.17786722  0.34506733     0.13800
H4794       H  0.46103978  0.19920354  0.32916020     0.13600
H4795       H  0.41697365  0.20932122  0.29935752     0.13500
H4796       H  0.40120464  0.18796664  0.31531844     0.12500
C4797       C  0.54312209  0.44443610  0.42708781     0.18900
C4798       C  0.54355004  0.42691092  0.42597698    -0.10300
C4799       C  0.55639093  0.41909798  0.41704246    -0.11100
C4800       C  0.56883563  0.42879855  0.40925845     0.20400
C4801       C  0.56825306  0.44632495  0.41014136    -0.13100
C4802       C  0.55541261  0.45413302  0.41905463    -0.11400
C4803       C  0.58248901  0.42073349  0.40087123     0.01400
C4804       C  0.59392826  0.41356128  0.39422800    -0.31400
C4805       C  0.53083773  0.45253996  0.43737302     0.02800
C4806       C  0.52206897  0.46040484  0.44675059    -0.33100
H4807       H  0.53417410  0.41931357  0.43225879     0.13800
H4808       H  0.55678440  0.40552191  0.41644041     0.13600
H4809       H  0.57785429  0.45391657  0.40419306     0.13500
H4810       H  0.55524814  0.46769973  0.41996228     0.12500
C4811       C  0.43405098  0.57830965  0.57537740     0.18900
C4812       C  0.44295385  0.58695576  0.56293834    -0.10300
C4813       C  0.45471923  0.57850613  0.55314392    -0.11100
C4814       C  0.45762811  0.56140525  0.55580534     0.20400
C4815       C  0.44911515  0.55289346  0.56861025    -0.13100
C4816       C  0.43734351  0.56134029  0.57839564    -0.11400
C4817       C  0.46802042  0.55220228  0.54440044     0.01400
C4818       C  0.47510913  0.54369654  0.53417890    -0.31400
C4819       C  0.42100369  0.58664841  0.58446650     0.02800
C4820       C  0.40988868  0.59373410  0.59174695    -0.33100
H4821       H  0.44047594  0.60008564  0.56052072     0.13800
H4822       H  0.46114438  0.58515668  0.54318340     0.13600
H4823       H  0.45118794  0.53962923  0.57066920     0.13500
H4824       H  0.43050701  0.55455295  0.58798581     0.12500
C4825       C  0.44006340  0.54656198  0.42678438     0.18900
C4826       C  0.44958439  0.55583137  0.41527498    -0.10300
C4827       C  0.44229147  0.56915085  0.40659425    -0.11100
C4828       C  0.42548619  0.57321942  0.40946230     0.20400
C4829       C  0.41589389  0.56378522  0.42076115    -0.13100
C4830       C  0.42318791  0.55047957  0.42945034    -0.11400
C4831       C  0.41804564  0.58716821  0.40100841     0.01400
C4832       C  0.41099109  0.59854078  0.39413420    -0.31400
C4833       C  0.44807318  0.53412329  0.43694223     0.02800
C4834       C  0.45595768  0.52543952  0.44638768    -0.33100
H4835       H  0.46271069  0.55299201  0.41329639     0.13800
H4836       H  0.44978305  0.57639818  0.39786360     0.13600
H4837       H  0.40287147  0.56687224  0.42302122     0.13500
H4838       H  0.41579955  0.54349575  0.43847489     0.12500
C4839       C  0.42044899  0.42875058  0.56504450     0.18900
C4840       C  0.43670683  0.43498386  0.56768100    -0.10300
C4841       C  0.44550902  0.44227257  0.55440223    -0.11100
C4842       C  0.43809270  0.44332712  0.53845321     0.20400
C4843       C  0.42184143  0.43707891  0.53580680    -0.13100
C4844       C  0.41303855  0.42977315  0.54909270    -0.11400
C4845       C  0.44703038  0.45147179  0.52511668     0.01400
C4846       C  0.45543779  0.45950658  0.51549418    -0.31400
C4847       C  0.41139361  0.42111704  0.57860011     0.02800
C4848       C  0.40337168  0.41421796  0.58937219    -0.33100
H4849       H  0.44254417  0.43422981  0.57996628     0.13800
H4850       H  0.45804385  0.44717991  0.55658496     0.13600
H4851       H  0.41596776  0.43793966  0.52354887     0.13500
H4852       H  0.40046769  0.42494974  0.54694890     0.12500
C4853       C  0.55854987  0.56525101  0.44884716     0.18900
C4854       C  0.57406566  0.55974765  0.44282831    -0.10300
C4855       C  0.58236193  0.56888010  0.43038095    -0.11100
C4856       C  0.57511801  0.58348437  0.42391584     0.20400
C4857       C  0.55982563  0.58921988  0.43024903    -0.13100
C4858       C  0.55153798  0.58009831  0.44269379    -0.11400
C4859       C  0.58306355  0.59227029  0.41039620     0.01400
C4860       C  0.58964537  0.59963979  0.39900175    -0.31400
C4861       C  0.54900765  0.55483573  0.45998619     0.02800
C4862       C  0.53999466  0.54542343  0.46760234    -0.33100
H4863       H  0.57949147  0.54818028  0.44739747     0.13800
H4864       H  0.59419505  0.56436589  0.42553570     0.13600
H4865       H  0.55414286  0.60050613  0.42530357     0.13500
H4866       H  0.53945743  0.58434607  0.44715878     0.12500
C4867       C  0.58176686  0.43762078  0.56614232     0.18900
C4868       C  0.58905251  0.44871853  0.55462053    -0.10300
C4869       C  0.57915391  0.46074632  0.54662831    -0.11100
C4870       C  0.56199417  0.46170168  0.55021290     0.20400
C4871       C  0.55481257  0.45084407  0.56200508    -0.13100
C4872       C  0.56469298  0.43883191  0.56997646    -0.11400
C4873       C  0.55139772  0.47265778  0.54072642     0.01400
C4874       C  0.54168693  0.48005705  0.53189810    -0.31400
C4875       C  0.59161153  0.42464974  0.57369884     0.02800
C4876       C  0.59945656  0.41359334  0.58026527    -0.33100
H4877       H  0.60225969  0.44784796  0.55158302     0.13800
H4878       H  0.58476381  0.46899051  0.53738763     0.13600
H4879       H  0.54151177  0.45138965  0.56471647     0.13500
H4880       H  0.55896658  0.43028439  0.57886610     0.12500
loop_ 
_geom_bond_atom_site_label_1 
_geom_bond_atom_site_label_2 
_geom_bond_distance 
_geom_bond_site_symmetry_2 
_ccdc_geom_bond_type 
O1           C17   1.271       .  A
O1           Zn7   2.007       .  S
C2           O18   1.271       .  A
C2           O15   1.272       .  A
C2         C4834   1.427       .  S
O3           C16   1.271       .  A
O3          Cd10   2.065       .  S
O4           C22   1.272       .  A
O4          Cd13   2.061       .  S
O5           C19   1.272       .  A
O5           Cd9   2.063       .  S
O6           C17   1.272       .  A
O6           Cd9   2.063       .  S
Zn7          O18   2.005       .  S
Zn7          O20   2.003       .  S
Zn7          O12   1.934       .  S
O8           C19   1.272       .  A
O8          Cd13   2.062       .  S
Cd9          O11   2.053       .  S
Cd9          O12   1.993       .  S
Cd10         O14   2.065       .  S
Cd10         O23   2.068       .  S
Cd10         O12   2.009       .  S
O11          C21   1.271       .  A
O12         Cd13   1.993       .  S
Cd13         O15   2.061       .  S
O14          C21   1.272       .  A
C16          O20   1.271       .  A
C16        C4862   1.429       .  S
C17        C4806   1.430       .  S
C19        C4846   1.429       .  S
C21        C4874   1.427       .  S
C22          O23   1.272       .  A
C22        C4818   1.430       .  S
O24          C40   1.271       .  A
O24         Zn30   2.011       .  S
C25          O41   1.272       .  A
C25          O38   1.272       .  A
C25        C4748   1.430       .  S
O26          C39   1.274       .  A
O26         Cd33   2.082       .  S
O27          C45   1.272       .  A
O27         Cd36   2.058       .  S
O28          C42   1.272       .  A
O28         Cd32   2.064       .  S
O29          C40   1.272       .  A
O29         Cd32   2.068       .  S
Zn30         O41   2.013       .  S
Zn30         O43   1.999       .  S
Zn30         O35   1.936       .  S
O31          C42   1.272       .  A
O31         Cd36   2.062       .  S
Cd32         O34   2.055       .  S
Cd32         O35   1.996       .  S
Cd33         O37   2.072       .  S
Cd33         O46   2.079       .  S
Cd33         O35   2.014       .  S
O34          C44   1.272       .  A
O35         Cd36   1.995       .  S
Cd36         O38   2.061       .  S
O37          C44   1.273       .  A
C39          O43   1.270       .  A
C39        C4790   1.434       .  S
C40        C4722   1.432       .  S
C42        C4762   1.429       .  S
C44        C4778   1.429       .  S
C45          O46   1.274       .  A
C45        C4734   1.433       .  S
C47        C4680   1.433       .  S
C47          N48   1.355       .  A
C47          N52   1.357       .  A
N48          C49   1.355       .  A
C49        C4692   1.430       .  S
C49          N50   1.355       .  A
N50          C51   1.356       .  A
C51        C4708   1.432       .  S
C51          N52   1.358       .  A
C53        C4650   1.434       .  S
C53          N54   1.356       .  A
C53          N58   1.357       .  A
N54          C55   1.357       .  A
C55        C4664   1.437       .  S
C55          N56   1.359       .  A
N56          C57   1.359       .  A
C57        C4636   1.438   1_565  S
C57          N58   1.357       .  A
C59        C4608   1.435       .  S
C59          N60   1.358       .  A
C59          N64   1.357       .  A
N60          C61   1.358       .  A
C61        C4622   1.435       .  S
C61          N62   1.357       .  A
N62          C63   1.357       .  A
C63        C4594   1.434       .  S
C63          N64   1.356       .  A
C65        C4554   1.433       .  S
C65          N66   1.357       .  A
C65          N70   1.356       .  A
N66          C67   1.356       .  A
C67        C4582   1.433       .  S
C67          N68   1.357       .  A
N68          C69   1.357       .  A
C69        C4566   1.434       .  S
C69          N70   1.357       .  A
N71          C76   1.353       .  A
N71          C75   1.353       .  A
N71         H103   1.035       .  S
N72          C79   1.350       .  A
N72          C80   1.351       .  A
N73          C78   1.352       .  A
N73          C77   1.352       .  A
N73         H104   1.035       .  S
N74          C81   1.351       .  A
N74          C82   1.350       .  A
C75          C83   1.389       .  A
C75          C91   1.416       .  A
C76          C92   1.413       .  A
C76          C84   1.387       .  A
C77          C85   1.387       .  A
C77          C94   1.411       .  A
C78          C93   1.412       .  A
C78          C86   1.388       .  A
C79          C91   1.412       .  A
C79          C87   1.387       .  A
C80          C94   1.412       .  A
C80          C88   1.387       .  A
C81          C89   1.387       .  A
C81          C92   1.411       .  A
C82          C90   1.387       .  A
C82          C93   1.411       .  A
C83          C84   1.375       .  A
C83          H95   1.082       .  S
C84          H96   1.082       .  S
C85          C86   1.374       .  A
C85          H97   1.082       .  S
C86          H98   1.082       .  S
C87          C88   1.374       .  A
C87          H99   1.082       .  S
C88         H100   1.082       .  S
C89          C90   1.373       .  A
C89         H101   1.082       .  S
C90         H102   1.082       .  S
C91        C4624   1.448       .  S
C92        C4568   1.448       .  S
C93        C4524   1.446       .  S
C94        C4540   1.447       .  S
N105        C110   1.353       .  A
N105        C109   1.354       .  A
N105        H137   1.033       .  S
N106        C113   1.351       .  A
N106        C114   1.351       .  A
N107        C112   1.352       .  A
N107        C111   1.351       .  A
N107        H138   1.034       .  S
N108        C115   1.351       .  A
N108        C116   1.352       .  A
C109        C117   1.388       .  A
C109        C125   1.417       .  A
C110        C126   1.417       .  A
C110        C118   1.388       .  A
C111        C119   1.388       .  A
C111        C128   1.412       .  A
C112        C127   1.413       .  A
C112        C120   1.388       .  A
C113        C125   1.413       .  A
C113        C121   1.387       .  A
C114        C128   1.413       .  A
C114        C122   1.387       .  A
C115        C123   1.387       .  A
C115        C126   1.414       .  A
C116        C124   1.387       .  A
C116        C127   1.413       .  A
C117        C118   1.376       .  A
C117        H129   1.082       .  S
C118        H130   1.082       .  S
C119        C120   1.374       .  A
C119        H131   1.082       .  S
C120        H132   1.082       .  S
C121        C122   1.373       .  A
C121        H133   1.082       .  S
C122        H134   1.082       .  S
C123        C124   1.373       .  A
C123        H135   1.082       .  S
C124        H136   1.082       .  S
C125       C4610   1.450       .  S
C126       C4666   1.451       .  S
C127       C4496   1.448       .  S
C128       C4512   1.446       .  S
N139        C144   1.353       .  A
N139        C143   1.352       .  A
N139        H171   1.036       .  S
N140        C147   1.350       .  A
N140        C148   1.350       .  A
N141        C146   1.351       .  A
N141        C145   1.352       .  A
N141        H172   1.035       .  S
N142        C149   1.351       .  A
N142        C150   1.351       .  A
C143        C151   1.388       .  A
C143        C159   1.413       .  A
C144        C160   1.413       .  A
C144        C152   1.388       .  A
C145        C153   1.387       .  A
C145        C162   1.412       .  A
C146        C161   1.412       .  A
C146        C154   1.388       .  A
C147        C159   1.409       .  A
C147        C155   1.387       .  A
C148        C162   1.410       .  A
C148        C156   1.387       .  A
C149        C157   1.387       .  A
C149        C160   1.412       .  A
C150        C158   1.387       .  A
C150        C161   1.412       .  A
C151        C152   1.376       .  A
C151        H163   1.082       .  S
C152        H164   1.082       .  S
C153        C154   1.374       .  A
C153        H165   1.082       .  S
C154        H166   1.082       .  S
C155        C156   1.372       .  A
C155        H167   1.082       .  S
C156        H168   1.082       .  S
C157        C158   1.374       .  A
C157        H169   1.082       .  S
C158        H170   1.082       .  S
C159       C4706   1.445       .  S
C160       C4552   1.448       .  S
C161       C4468   1.445       .  S
C162       C4482   1.446       .  S
N173        C178   1.353       .  A
N173        C177   1.352       .  A
N173        H205   1.035       .  S
N174        C181   1.351       .  A
N174        C182   1.351       .  A
N175        C180   1.352       .  A
N175        C179   1.352       .  A
N175        H206   1.035       .  S
N176        C183   1.350       .  A
N176        C184   1.350       .  A
C177        C185   1.387       .  A
C177        C193   1.413       .  A
C178        C194   1.414       .  A
C178        C186   1.388       .  A
C179        C187   1.388       .  A
C179        C196   1.413       .  A
C180        C195   1.412       .  A
C180        C188   1.388       .  A
C181        C193   1.412       .  A
C181        C189   1.387       .  A
C182        C196   1.412       .  A
C182        C190   1.387       .  A
C183        C191   1.387       .  A
C183        C194   1.411       .  A
C184        C192   1.387       .  A
C184        C195   1.412       .  A
C185        C186   1.375       .  A
C185        H197   1.082       .  S
C186        H198   1.082       .  S
C187        C188   1.375       .  A
C187        H199   1.082       .  S
C188        H200   1.082       .  S
C189        C190   1.374       .  A
C189        H201   1.082       .  S
C190        H202   1.082       .  S
C191        C192   1.373       .  A
C191        H203   1.082       .  S
C192        H204   1.082       .  S
C193       C4678   1.448       .  S
C194       C4596   1.448       .  S
C195       C4454   1.446       .  S
C196       C4440   1.446       .  S
N207        C212   1.352       .  A
N207        C211   1.352       .  A
N207        H239   1.036       .  S
N208        C215   1.350       .  A
N208        C216   1.350       .  A
N209        C214   1.352       .  A
N209        C213   1.353       .  A
N209        H240   1.035       .  S
N210        C217   1.350       .  A
N210        C218   1.350       .  A
C211        C219   1.388       .  A
C211        C227   1.412       .  A
C212        C228   1.412       .  A
C212        C220   1.388       .  A
C213        C221   1.387       .  A
C213        C230   1.413       .  A
C214        C229   1.414       .  A
C214        C222   1.388       .  A
C215        C227   1.410       .  A
C215        C223   1.386       .  A
C216        C230   1.411       .  A
C216        C224   1.387       .  A
C217        C225   1.387       .  A
C217        C228   1.411       .  A
C218        C226   1.387       .  A
C218        C229   1.411       .  A
C219        C220   1.374       .  A
C219        H231   1.082       .  S
C220        H232   1.082       .  S
C221        C222   1.374       .  A
C221        H233   1.082       .  S
C222        H234   1.082       .  S
C223        C224   1.373       .  A
C223        H235   1.082       .  S
C224        H236   1.082       .  S
C225        C226   1.373       .  A
C225        H237   1.082       .  S
C226        H238   1.082       .  S
C227       C4652   1.446       .  S
C228       C4694   1.445       .  S
C229       C4426   1.446       .  S
C230       C4412   1.447       .  S
N241        C246   1.354       .  A
N241        C245   1.353       .  A
N241        H273   1.033       .  S
N242        C249   1.351       .  A
N242        C250   1.351       .  A
N243        C248   1.352       .  A
N243        C247   1.353       .  A
N243        H274   1.033       .  S
N244        C251   1.352       .  A
N244        C252   1.352       .  A
C245        C253   1.388       .  A
C245        C261   1.416       .  A
C246        C262   1.417       .  A
C246        C254   1.388       .  A
C247        C255   1.388       .  A
C247        C264   1.415       .  A
C248        C263   1.414       .  A
C248        C256   1.387       .  A
C249        C261   1.413       .  A
C249        C257   1.387       .  A
C250        C264   1.413       .  A
C250        C258   1.387       .  A
C251        C259   1.387       .  A
C251        C262   1.415       .  A
C252        C260   1.387       .  A
C252        C263   1.415       .  A
C253        C254   1.375       .  A
C253        H265   1.082       .  S
C254        H266   1.082       .  S
C255        C256   1.375       .  A
C255        H267   1.082       .  S
C256        H268   1.082       .  S
C257        C258   1.374       .  A
C257        H269   1.082       .  S
C258        H270   1.082       .  S
C259        C260   1.374       .  A
C259        H271   1.082       .  S
C260        H272   1.082       .  S
C261       C4580   1.448       .  S
C262       C4638   1.453       .  S
C263       C4398   1.450       .  S
C264       C4384   1.449       .  S
O275        C291   1.271       .  A
O275       Zn281   2.009       .  S
C276        O292   1.272       .  A
C276        O289   1.272       .  A
C276       C4342   1.430       .  S
O277        C290   1.273       .  A
O277       Cd284   2.073       .  S
O278        C296   1.271       .  A
O278       Cd287   2.053       .  S
O279        C293   1.274       .  A
O279       Cd283   2.073       .  S
O280        C291   1.273       .  A
O280       Cd283   2.073       .  S
Zn281       O292   2.012       .  S
Zn281       O294   1.996       .  S
Zn281       O286   1.937       .  S
O282        C293   1.272       .  A
O282       Cd287   2.062       .  S
Cd283       O285   2.057       .  S
Cd283       O286   1.996       .  S
Cd284       O288   2.070       .  S
Cd284       O297   2.075       .  S
Cd284       O286   2.014       .  S
O285        C295   1.272       .  A
O286       Cd287   1.993       .  S
Cd287       O289   2.062       .  S
O288        C295   1.273       .  A
C290        O294   1.270       .  A
C290       C4302   1.429       .  S
C291       C4370   1.434       .  S
C293       C4328   1.433       .  S
C295       C4314   1.429       .  S
C296        O297   1.273       .  A
C296       C4358   1.430       .  S
O298        C314   1.272       .  A
O298       Zn304   2.007       .  S
C299        O315   1.271       .  A
C299        O312   1.272       .  A
C299       C4218   1.430       .  S
O300        C313   1.273       .  A
O300       Cd307   2.075       .  S
O301        C319   1.271       .  A
O301       Cd310   2.054       .  S
O302        C316   1.273       .  A
O302       Cd306   2.065       .  S
O303        C314   1.272       .  A
O303       Cd306   2.066       .  S
Zn304       O315   2.010       .  S
Zn304       O317   2.001       .  S
Zn304       O309   1.936       .  S
O305        C316   1.272       .  A
O305       Cd310   2.069       .  S
Cd306       O308   2.055       .  S
Cd306       O309   1.992       .  S
Cd307       O311   2.076       .  S
Cd307       O320   2.075       .  S
Cd307       O309   2.012       .  S
O308        C318   1.271       .  A
O309       Cd310   1.996       .  S
Cd310       O312   2.062       .  S
O311        C318   1.274       .  A
C313        O317   1.270       .  A
C313       C4272   1.431       .  S
C314       C4230   1.429       .  S
C316       C4286   1.433       .  S
C318       C4244   1.431       .  S
C319        O320   1.274       .  A
C319       C4258   1.431       .  S
O321        C337   1.271       .  A
O321       Zn327   2.009       .  S
C322        O338   1.272       .  A
C322        O335   1.271       .  A
C322       C4174   1.428       .  S
O323        C336   1.274       .  A
O323       Cd330   2.082       .  S
O324        C342   1.271       .  A
O324       Cd333   2.055       .  S
O325        C339   1.273       .  A
O325       Cd329   2.072       .  S
O326        C337   1.272       .  A
O326       Cd329   2.066       .  S
Zn327       O338   2.012       .  S
Zn327       O340   2.000       .  S
Zn327       O332   1.938       .  S
O328        C339   1.271       .  A
O328       Cd333   2.061       .  S
Cd329       O331   2.056       .  S
Cd329       O332   1.996       .  S
Cd330       O334   2.076       .  S
Cd330       O343   2.080       .  S
Cd330       O332   2.015       .  S
O331        C341   1.272       .  A
O332       Cd333   1.992       .  S
Cd333       O335   2.056       .  S
O334        C341   1.274       .  A
C336        O340   1.270       .  A
C336       C4188   1.433       .  S
C337       C4428   1.431       .  S
C339       C4162   1.431       .  S
C341       C4202   1.430       .  S
C342        O343   1.274       .  A
C342       C4146   1.432       .  S
O344        C360   1.272       .  A
O344       Zn350   2.012       .  S
C345        O361   1.271       .  A
C345        O358   1.272       .  A
C345       C4076   1.433       .  S
O346        C359   1.272       .  A
O346       Cd353   2.067       .  S
O347        C365   1.271       .  A
O347       Cd356   2.056       .  S
O348        C362   1.273       .  A
O348       Cd352   2.065       .  S
O349        C360   1.272       .  A
O349       Cd352   2.068   1_556  S
Zn350       O361   2.013   1_556  S
Zn350       O363   2.002       .  S
Zn350       O355   1.937   1_556  S
O351        C362   1.273       .  A
O351       Cd356   2.065       .  S
Cd352       O354   2.064   1_554  S
Cd352       O355   1.996       .  S
Cd353       O357   2.073       .  S
Cd353       O366   2.068   1_556  S
Cd353       O355   2.012   1_556  S
O354        C364   1.273       .  A
O355       Cd356   1.996       .  S
Cd356       O358   2.068       .  S
O357        C364   1.273       .  A
C359        O363   1.271       .  A
C359       C4538   1.430       .  S
C360       C4090   1.432       .  S
C362       C4118   1.430       .  S
C364       C4106   1.433       .  S
C365        O366   1.272       .  A
C365       C4132   1.429       .  S
O367        C383   1.271       .  A
O367       Zn373   2.012       .  S
C368        O384   1.271       .  A
C368        O381   1.271       .  A
C368       C4456   1.429       .  S
O369        C382   1.273   1_554  A
O369       Cd376   2.074       .  S
O370        C388   1.271       .  A
O370       Cd379   2.052       .  S
O371        C385   1.272       .  A
O371       Cd375   2.060   1_655  S
O372        C383   1.271       .  A
O372       Cd375   2.062   1_556  S
Zn373       O384   2.010   1_455  S
Zn373       O386   1.992       .  S
Zn373       O378   1.936   1_456  S
O374        C385   1.271       .  A
O374       Cd379   2.058       .  S
Cd375       O377   2.047       .  S
Cd375       O378   1.990   1_455  S
Cd376       O380   2.083       .  S
Cd376       O389   2.081   1_455  S
Cd376       O378   2.017   1_455  S
O377        C387   1.271       .  A
O378       Cd379   1.991       .  S
Cd379       O381   2.058   1_554  S
O380        C387   1.275       .  A
C382        O386   1.270       .  A
C382       C4020   1.428       .  S
C383       C4048   1.431       .  S
C385       C4064   1.427       .  S
C387       C4006   1.430       .  S
C388        O389   1.274       .  A
C388       C4034   1.431       .  S
O390        C406   1.271       .  A
O390       Zn396   2.008       .  S
C391        O407   1.271       .  A
C391        O404   1.272       .  A
C391       C3978   1.430       .  S
O392        C405   1.273       .  A
O392       Cd399   2.076       .  S
O393        C411   1.272       .  A
O393       Cd402   2.053       .  S
O394        C408   1.271       .  A
O394       Cd398   2.060   1_565  S
O395        C406   1.270       .  A
O395       Cd398   2.055       .  S
Zn396       O407   2.009   1_545  S
Zn396       O409   2.001       .  S
Zn396       O401   1.936   1_545  S
O397        C408   1.272       .  A
O397       Cd402   2.068       .  S
Cd398       O400   2.051       .  S
Cd398       O401   1.991   1_545  S
Cd399       O403   2.080       .  S
Cd399       O412   2.071   1_545  S
Cd399       O401   2.013   1_545  S
O400        C410   1.271       .  A
O401       Cd402   1.995       .  S
Cd402       O404   2.064       .  S
O403        C410   1.274       .  A
C405        O409   1.271       .  A
C405       C3966   1.431       .  S
C406       C3992   1.427       .  S
C408       C4526   1.431       .  S
C410       C3936   1.431       .  S
C411        O412   1.273       .  A
C411       C3950   1.428       .  S
O413        C429   1.271       .  A
O413       Zn419   2.006       .  S
C414        O430   1.271       .  A
C414        O427   1.273       .  A
C414       C3894   1.431       .  S
O415        C428   1.273       .  A
O415       Cd422   2.078       .  S
O416        C434   1.272       .  A
O416       Cd425   2.057       .  S
O417        C431   1.271       .  A
O417       Cd421   2.062       .  S
O418        C429   1.271       .  A
O418       Cd421   2.056       .  S
Zn419       O430   2.010       .  S
Zn419       O432   2.000       .  S
Zn419       O424   1.937       .  S
O420        C431   1.273       .  A
O420       Cd425   2.077       .  S
Cd421       O423   2.050       .  S
Cd421       O424   1.991       .  S
Cd422       O426   2.079       .  S
Cd422       O435   2.073       .  S
Cd422       O424   2.014       .  S
O423        C433   1.271       .  A
O424       Cd425   1.997       .  S
Cd425       O427   2.067       .  S
O426        C433   1.274       .  A
C428        O432   1.271       .  A
C428       C3882   1.431       .  S
C429       C3908   1.427       .  S
C431       C3922   1.434       .  S
C433       C3868   1.430       .  S
C434        O435   1.274       .  A
C434       C4484   1.430       .  S
O436        C452   1.271       .  A
O436       Zn442   2.005       .  S
C437        O453   1.271       .  A
C437        O450   1.271       .  A
C437       C3810   1.428       .  S
O438        C451   1.274       .  A
O438       Cd445   2.079       .  S
O439        C457   1.271       .  A
O439       Cd448   2.055       .  S
O440        C454   1.272       .  A
O440       Cd444   2.064   1_655  S
O441        C452   1.272       .  A
O441       Cd444   2.066       .  S
Zn442       O453   2.006   1_455  S
Zn442       O455   2.001       .  S
Zn442       O447   1.935   1_455  S
O443        C454   1.271       .  A
O443       Cd448   2.062       .  S
Cd444       O446   2.059       .  S
Cd444       O447   1.996   1_455  S
Cd445       O449   2.075       .  S
Cd445       O458   2.074   1_455  S
Cd445       O447   2.013   1_455  S
O446        C456   1.272       .  A
O447       Cd448   1.995       .  S
Cd448       O450   2.060       .  S
O449        C456   1.274       .  A
C451        O455   1.271       .  A
C451       C3852   1.432       .  S
C452       C3840   1.429       .  S
C454       C4510   1.430       .  S
C456       C3798   1.431       .  S
C457        O458   1.273       .  A
C457       C3826   1.430       .  S
O459        C475   1.273       .  A
O459       Zn465   2.018       .  S
C460        O476   1.273       .  A
C460        O473   1.272       .  A
C460       C3754   1.433       .  S
O461        C474   1.273       .  A
O461       Cd468   2.072       .  S
O462        C480   1.272       .  A
O462       Cd471   2.058   1_565  S
O463        C477   1.272       .  A
O463       Cd467   2.065   1_554  S
O464        C475   1.271       .  A
O464       Cd467   2.056       .  S
Zn465       O476   2.020   1_546  S
Zn465       O478   2.005   1_545  S
Zn465       O470   1.941       .  S
O466        C477   1.272       .  A
O466       Cd471   2.066       .  S
Cd467       O469   2.052       .  S
Cd467       O470   1.993       .  S
Cd468       O472   2.070   1_565  S
Cd468       O481   2.071       .  S
Cd468       O470   2.012   1_565  S
O469        C479   1.271       .  A
O470       Cd471   1.992   1_556  S
Cd471       O473   2.064   1_545  S
O472        C479   1.273       .  A
C474        O478   1.271       .  A
C474       C4414   1.431       .  S
C475       C3740   1.430       .  S
C477       C3726   1.431       .  S
C479       C3782   1.427       .  S
C480        O481   1.273   1_554  A
C480       C3770   1.430       .  S
C482       C3698   1.431       .  S
C482        N483   1.356       .  A
C482        N487   1.356       .  A
N483        C484   1.356       .  A
C484       C3684   1.431       .  S
C484        N485   1.356       .  A
N485        C486   1.356       .  A
C486       C3712   1.432       .  S
C486        N487   1.356       .  A
N488        C493   1.351       .  A
N488        C492   1.353       .  A
N488        H520   1.037       .  S
N489        C496   1.350       .  A
N489        C497   1.349       .  A
N490        C495   1.352       .  A
N490        C494   1.350       .  A
N490        H521   1.036       .  S
N491        C498   1.349       .  A
N491        C499   1.351       .  A
C492        C500   1.387       .  A
C492        C508   1.413       .  A
C493        C509   1.413       .  A
C493        C501   1.388       .  A
C494        C502   1.388       .  A
C494        C511   1.411       .  A
C495        C510   1.411       .  A
C495        C503   1.388       .  A
C496        C508   1.409       .  A
C496        C504   1.386       .  A
C497        C511   1.409       .  A
C497        C505   1.387       .  A
C498        C506   1.387       .  A
C498        C509   1.410       .  A
C499        C507   1.386       .  A
C499        C510   1.410       .  A
C500        C501   1.376       .  A
C500        H512   1.082       .  S
C501        H513   1.082       .  S
C502        C503   1.375       .  A
C502        H514   1.082       .  S
C503        H515   1.082       .  S
C504        C505   1.373       .  A
C504        H516   1.082       .  S
C505        H517   1.082       .  S
C506        C507   1.375       .  A
C506        H518   1.082       .  S
C507        H519   1.082       .  S
C508       C3670   1.448       .  S
C509       C3700   1.444       .  S
C510       C4330   1.448       .  S
C511       C4832   1.442       .  S
C522       C3628   1.435       .  S
C522        N523   1.357       .  A
C522        N527   1.357       .  A
N523        C524   1.357       .  A
C524       C3656   1.433       .  S
C524        N525   1.356       .  A
N525        C526   1.356       .  A
C526       C3642   1.433       .  S
C526        N527   1.357       .  A
N528        C533   1.353       .  A
N528        C532   1.353       .  A
N528        H560   1.036       .  S
N529        C536   1.350       .  A
N529        C537   1.351       .  A
N530        C535   1.351       .  A
N530        C534   1.352       .  A
N530        H561   1.036       .  S
N531        C538   1.350       .  A
N531        C539   1.350       .  A
C532        C540   1.388       .  A
C532        C548   1.415       .  A
C533        C549   1.413       .  A
C533        C541   1.387       .  A
C534        C542   1.388       .  A
C534        C551   1.411       .  A
C535        C550   1.411       .  A
C535        C543   1.388       .  A
C536        C548   1.411       .  A
C536        C544   1.387       .  A
C537        C551   1.411       .  A
C537        C545   1.386       .  A
C538        C546   1.387       .  A
C538        C549   1.411       .  A
C539        C547   1.386       .  A
C539        C550   1.410       .  A
C540        C541   1.376       .  A
C540        H552   1.082       .  S
C541        H553   1.083       .  S
C542        C543   1.374       .  A
C542        H554   1.082       .  S
C543        H555   1.082       .  S
C544        C545   1.374       .  A
C544        H556   1.082       .  S
C545        H557   1.082       .  S
C546        C547   1.373       .  A
C546        H558   1.082       .  S
C547        H559   1.082       .  S
C548       C3630   1.448       .  S
C549       C3614   1.447       .  S
C550       C3880   1.445       .  S
C551       C3600   1.446       .  S
N562        C567   1.353       .  A
N562        C566   1.353       .  A
N562        H594   1.034       .  S
N563        C570   1.351       .  A
N563        C571   1.351       .  A
N564        C569   1.352       .  A
N564        C568   1.352       .  A
N564        H595   1.034       .  S
N565        C572   1.350       .  A
N565        C573   1.350       .  A
C566        C574   1.388       .  A
C566        C582   1.415       .  A
C567        C583   1.415       .  A
C567        C575   1.388       .  A
C568        C576   1.388       .  A
C568        C585   1.412       .  A
C569        C584   1.413       .  A
C569        C577   1.388       .  A
C570        C582   1.412       .  A
C570        C578   1.387       .  A
C571        C585   1.412       .  A
C571        C579   1.387       .  A
C572        C580   1.387       .  A
C572        C583   1.412       .  A
C573        C581   1.387       .  A
C573        C584   1.411       .  A
C574        C575   1.375       .  A
C574        H586   1.082       .  S
C575        H587   1.082       .  S
C576        C577   1.373       .  A
C576        H588   1.082       .  S
C577        H589   1.082       .  S
C578        C579   1.373       .  A
C578        H590   1.082       .  S
C579        H591   1.082       .  S
C580        C581   1.373       .  A
C580        H592   1.082       .  S
C581        H593   1.082       .  S
C582       C3644   1.447       .  S
C583       C3714   1.448       .  S
C584       C4134   1.445       .  S
C585       C3768   1.446       .  S
C596       C3588   1.438       .  S
C596        N597   1.358       .  A
C596        N601   1.358       .  A
N597        C598   1.358       .  A
C598       C3572   1.436   1_565  S
C598        N599   1.356       .  A
N599        C600   1.356       .  A
C600       C3558   1.435       .  S
C600        N601   1.358       .  A
C602       C3544   1.432       .  S
C602        N603   1.357       .  A
C602        N607   1.357       .  A
N603        C604   1.356       .  A
C604       C3616   1.432       .  S
C604        N605   1.356       .  A
N605        C606   1.356       .  A
C606       C3672   1.433       .  S
C606        N607   1.357       .  A
N608        C613   1.352       .  A
N608        C612   1.353       .  A
N608        H640   1.034       .  S
N609        C616   1.350       .  A
N609        C617   1.350       .  A
N610        C615   1.352       .  A
N610        C614   1.352       .  A
N610        H641   1.035       .  S
N611        C618   1.351       .  A
N611        C619   1.351       .  A
C612        C620   1.388       .  A
C612        C628   1.415       .  A
C613        C629   1.415       .  A
C613        C621   1.388       .  A
C614        C622   1.388       .  A
C614        C631   1.412       .  A
C615        C630   1.412       .  A
C615        C623   1.388       .  A
C616        C628   1.412       .  A
C616        C624   1.387       .  A
C617        C631   1.411       .  A
C617        C625   1.387       .  A
C618        C626   1.387       .  A
C618        C629   1.412       .  A
C619        C627   1.387       .  A
C619        C630   1.412       .  A
C620        C621   1.375       .  A
C620        H632   1.082       .  S
C621        H633   1.082       .  S
C622        C623   1.374       .  A
C622        H634   1.082       .  S
C623        H635   1.082       .  S
C624        C625   1.373       .  A
C624        H636   1.082       .  S
C625        H637   1.082       .  S
C626        C627   1.373       .  A
C626        H638   1.082       .  S
C627        H639   1.082       .  S
C628       C3560   1.449       .  S
C629       C3546   1.447       .  S
C630       C4160   1.447       .  S
C631       C3980   1.445       .  S
N642        C647   1.353       .  A
N642        C646   1.352       .  A
N642        H674   1.037       .  S
N643        C650   1.350       .  A
N643        C651   1.351       .  A
N644        C649   1.352       .  A
N644        C648   1.353       .  A
N644        H675   1.037       .  S
N645        C652   1.351       .  A
N645        C653   1.350       .  A
C646        C654   1.388       .  A
C646        C662   1.414       .  A
C647        C663   1.413       .  A
C647        C655   1.387       .  A
C648        C656   1.387       .  A
C648        C665   1.412       .  A
C649        C664   1.413       .  A
C649        C657   1.388       .  A
C650        C662   1.411       .  A
C650        C658   1.387       .  A
C651        C665   1.411       .  A
C651        C659   1.386       .  A
C652        C660   1.387       .  A
C652        C663   1.411       .  A
C653        C661   1.387       .  A
C653        C664   1.411       .  A
C654        C655   1.377       .  A
C654        H666   1.082       .  S
C655        H667   1.082       .  S
C656        C657   1.376       .  A
C656        H668   1.082       .  S
C657        H669   1.082       .  S
C658        C659   1.374       .  A
C658        H670   1.082       .  S
C659        H671   1.082       .  S
C660        C661   1.373       .  A
C660        H672   1.082       .  S
C661        H673   1.082       .  S
C662       C3658   1.447       .  S
C663       C3574   1.450       .  S
C664       C4274   1.446       .  S
C665       C4792   1.450       .  S
N676        C681   1.354       .  A
N676        C680   1.353       .  A
N676        H708   1.034       .  S
N677        C684   1.350       .  A
N677        C685   1.351       .  A
N678        C683   1.352       .  A
N678        C682   1.353       .  A
N678        H709   1.035       .  S
N679        C686   1.352       .  A
N679        C687   1.351       .  A
C680        C688   1.388       .  A
C680        C696   1.415       .  A
C681        C697   1.417       .  A
C681        C689   1.388       .  A
C682        C690   1.388       .  A
C682        C699   1.413       .  A
C683        C698   1.413       .  A
C683        C691   1.388       .  A
C684        C696   1.412       .  A
C684        C692   1.388       .  A
C685        C699   1.411       .  A
C685        C693   1.387       .  A
C686        C694   1.387       .  A
C686        C697   1.413       .  A
C687        C695   1.387       .  A
C687        C698   1.413       .  A
C688        C689   1.376       .  A
C688        H700   1.083       .  S
C689        H701   1.082       .  S
C690        C691   1.374       .  A
C690        H702   1.082       .  S
C691        H703   1.082       .  S
C692        C693   1.373       .  A
C692        H704   1.083       .  S
C693        H705   1.083       .  S
C694        C695   1.373       .  A
C694        H706   1.082       .  S
C695        H707   1.082       .  S
C696       C3686   1.446       .  S
C697       C3586   1.452       .  S
C698       C3532   1.448       .  S
C699       C3838   1.446       .  S
O710        C726   1.272       .  A
O710       Zn716   2.012   1_545  S
C711        O727   1.272       .  A
C711        O724   1.272       .  A
C711       C3504   1.431       .  S
O712        C725   1.272       .  A
O712       Cd719   2.073       .  S
O713        C731   1.271       .  A
O713       Cd722   2.057   1_565  S
O714        C728   1.272       .  A
O714       Cd718   2.065       .  S
O715        C726   1.271       .  A
O715       Cd718   2.059       .  S
Zn716       O727   2.010       .  S
Zn716       O729   2.002       .  S
Zn716       O721   1.937   1_565  S
O717        C728   1.273       .  A
O717       Cd722   2.068       .  S
Cd718       O720   2.054       .  S
Cd718       O721   1.993       .  S
Cd719       O723   2.070   1_565  S
Cd719       O732   2.074       .  S
Cd719       O721   2.012   1_565  S
O720        C730   1.271       .  A
O721       Cd722   1.994       .  S
Cd722       O724   2.064   1_545  S
O723        C730   1.273       .  A
C725        O729   1.271       .  A
C725       C3602   1.431       .  S
C726       C3490   1.429       .  S
C728       C3476   1.432       .  S
C730       C3516   1.428       .  S
C731        O732   1.273       .  A
C731       C4498   1.431       .  S
O733        C749   1.273       .  A
O733       Zn739   2.025       .  S
C734        O750   1.272       .  A
C734        O747   1.272       .  A
C734       C3460   1.434       .  S
O735        C748   1.271       .  A
O735       Cd742   2.062       .  S
O736        C754   1.272       .  A
O736       Cd745   2.060       .  S
O737        C751   1.273       .  A
O737       Cd741   2.068       .  S
O738        C749   1.273       .  A
O738       Cd741   2.068       .  S
Zn739       O750   2.020   1_556  S
Zn739       O752   2.002   1_556  S
Zn739       O744   1.944       .  S
O740        C751   1.273       .  A
O740       Cd745   2.067   1_556  S
Cd741       O743   2.064       .  S
Cd741       O744   1.995       .  S
Cd742       O746   2.074   1_554  S
Cd742       O755   2.072       .  S
Cd742       O744   2.013   1_554  S
O743        C753   1.272       .  A
O744       Cd745   1.995   1_556  S
Cd745       O747   2.065       .  S
O746        C753   1.273       .  A
C748        O752   1.271       .  A
C748       C3404   1.427       .  S
C749       C4400   1.435       .  S
C751       C3446   1.432       .  S
C753       C3418   1.433       .  S
C754        O755   1.272       .  A
C754       C3432   1.431       .  S
C756       C3362   1.431       .  S
C756        N757   1.356       .  A
C756        N761   1.357       .  A
N757        C758   1.355       .  A
C758       C3392   1.431       .  S
C758        N759   1.356       .  A
N759        C760   1.356       .  A
C760       C3376   1.433       .  S
C760        N761   1.357       .  A
C762       C3320   1.431       .  S
C762        N763   1.357       .  A
C762        N767   1.355       .  A
N763        C764   1.357       .  A
C764       C3334   1.432       .  S
C764        N765   1.356       .  A
N765        C766   1.356       .  A
C766       C3350   1.429       .  S
C766        N767   1.355       .  A
C768       C3308   1.434       .  S
C768        N769   1.357       .  A
C768        N773   1.357       .  A
N769        C770   1.357       .  A
C770       C3278   1.436       .  S
C770        N771   1.358       .  A
N771        C772   1.358       .  A
C772       C3294   1.437       .  S
C772        N773   1.356       .  A
C774       C3252   1.431       .  S
C774        N775   1.356       .  A
C774        N779   1.355       .  A
N775        C776   1.356       .  A
C776       C3238   1.433       .  S
C776        N777   1.357       .  A
N777        C778   1.357       .  A
C778       C3264   1.431   1_556  S
C778        N779   1.356       .  A
N780        C785   1.353       .  A
N780        C784   1.354       .  A
N780        H812   1.035       .  S
N781        C788   1.351       .  A
N781        C789   1.350       .  A
N782        C787   1.351       .  A
N782        C786   1.351       .  A
N782        H813   1.036       .  S
N783        C790   1.350       .  A
N783        C791   1.351       .  A
C784        C792   1.387       .  A
C784        C800   1.415       .  A
C785        C801   1.416       .  A
C785        C793   1.388       .  A
C786        C794   1.388       .  A
C786        C803   1.410       .  A
C787        C802   1.409       .  A
C787        C795   1.387       .  A
C788        C800   1.411       .  A
C788        C796   1.387       .  A
C789        C803   1.410       .  A
C789        C797   1.387       .  A
C790        C798   1.388       .  A
C790        C801   1.412       .  A
C791        C799   1.386       .  A
C791        C802   1.411       .  A
C792        C793   1.376       .  A
C792        H804   1.082       .  S
C793        H805   1.082       .  S
C794        C795   1.374       .  A
C794        H806   1.082       .  S
C795        H807   1.082       .  S
C796        C797   1.374       .  A
C796        H808   1.082       .  S
C797        H809   1.083       .  S
C798        C799   1.373       .  A
C798        H810   1.082       .  S
C799        H811   1.082       .  S
C800       C3292   1.451       .  S
C801       C3236   1.448       .  S
C802       C4104   1.447       .  S
C803       C4176   1.444       .  S
N814        C819   1.352       .  A
N814        C818   1.353       .  A
N814        H846   1.035       .  S
N815        C822   1.351       .  A
N815        C823   1.350       .  A
N816        C821   1.353       .  A
N816        C820   1.352       .  A
N816        H847   1.035       .  S
N817        C824   1.350       .  A
N817        C825   1.351       .  A
C818        C826   1.387       .  A
C818        C834   1.413       .  A
C819        C835   1.414       .  A
C819        C827   1.388       .  A
C820        C828   1.388       .  A
C820        C837   1.413       .  A
C821        C836   1.414       .  A
C821        C829   1.388       .  A
C822        C834   1.411       .  A
C822        C830   1.386       .  A
C823        C837   1.412       .  A
C823        C831   1.388       .  A
C824        C832   1.387       .  A
C824        C835   1.411       .  A
C825        C833   1.387       .  A
C825        C836   1.411       .  A
C826        C827   1.375       .  A
C826        H838   1.082       .  S
C827        H839   1.082       .  S
C828        C829   1.375       .  A
C828        H840   1.082       .  S
C829        H841   1.082       .  S
C830        C831   1.373       .  A
C830        H842   1.082       .  S
C831        H843   1.082       .  S
C832        C833   1.374       .  A
C832        H844   1.082       .  S
C833        H845   1.082       .  S
C834       C3280   1.450       .  S
C835       C3322   1.445       .  S
C836       C3448   1.448       .  S
C837       C3222   1.445       .  S
N848        C853   1.353       .  A
N848        C852   1.353       .  A
N848        H880   1.035       .  S
N849        C856   1.350       .  A
N849        C857   1.351       .  A
N850        C855   1.352       .  A
N850        C854   1.352       .  A
N850        H881   1.035       .  S
N851        C858   1.351       .  A
N851        C859   1.350       .  A
C852        C860   1.388       .  A
C852        C868   1.414       .  A
C853        C869   1.414       .  A
C853        C861   1.388       .  A
C854        C862   1.388       .  A
C854        C871   1.413       .  A
C855        C870   1.413       .  A
C855        C863   1.388       .  A
C856        C868   1.412       .  A
C856        C864   1.387       .  A
C857        C871   1.411       .  A
C857        C865   1.387       .  A
C858        C866   1.386       .  A
C858        C869   1.411       .  A
C859        C867   1.387       .  A
C859        C870   1.412       .  A
C860        C861   1.374       .  A
C860        H872   1.082       .  S
C861        H873   1.082       .  S
C862        C863   1.375       .  A
C862        H874   1.082       .  S
C863        H875   1.082       .  S
C864        C865   1.374       .  A
C864        H876   1.082       .  S
C865        H877   1.082       .  S
C866        C867   1.373       .  A
C866        H878   1.082       .  S
C867        H879   1.082       .  S
C868       C3306   1.448       .  S
C869       C3378   1.448       .  S
C870       C4246   1.447       .  S
C871       C4848   1.446       .  S
N882        C887   1.352       .  A
N882        C886   1.353       .  A
N882        H914   1.033       .  S
N883        C890   1.351       .  A
N883        C891   1.350       .  A
N884        C889   1.353       .  A
N884        C888   1.351       .  A
N884        H915   1.035       .  S
N885        C892   1.350       .  A
N885        C893   1.351       .  A
C886        C894   1.388       .  A
C886        C902   1.415       .  A
C887        C903   1.416       .  A
C887        C895   1.389       .  A
C888        C896   1.388       .  A
C888        C905   1.412       .  A
C889        C904   1.412       .  A
C889        C897   1.387       .  A
C890        C902   1.412       .  A
C890        C898   1.387       .  A
C891        C905   1.412       .  A
C891        C899   1.387       .  A
C892        C900   1.387       .  A
C892        C903   1.412       .  A
C893        C901   1.387       .  A
C893        C904   1.412       .  A
C894        C895   1.375       .  A
C894        H906   1.083       .  S
C895        H907   1.082       .  S
C896        C897   1.375       .  A
C896        H908   1.082       .  S
C897        H909   1.082       .  S
C898        C899   1.373       .  A
C898        H910   1.082       .  S
C899        H911   1.082       .  S
C900        C901   1.372       .  A
C900        H912   1.082       .  S
C901        H913   1.082       .  S
C902       C3336   1.449       .  S
C903       C3266   1.445       .  S
C904       C4372   1.449       .  S
C905       C4776   1.444       .  S
N916        C921   1.351       .  A
N916        C920   1.351       .  A
N916        H948   1.036       .  S
N917        C924   1.350       .  A
N917        C925   1.349       .  A
N918        C923   1.352       .  A
N918        C922   1.351       .  A
N918        H949   1.035       .  S
N919        C926   1.349       .  A
N919        C927   1.350       .  A
C920        C928   1.387       .  A
C920        C936   1.411       .  A
C921        C937   1.411       .  A
C921        C929   1.388       .  A
C922        C930   1.388       .  A
C922        C939   1.412       .  A
C923        C938   1.411       .  A
C923        C931   1.388       .  A
C924        C936   1.409       .  A
C924        C932   1.387       .  A
C925        C939   1.409       .  A
C925        C933   1.387       .  A
C926        C934   1.387       .  A
C926        C937   1.409       .  A
C927        C935   1.387       .  A
C927        C938   1.409       .  A
C928        C929   1.375       .  A
C928        H940   1.082       .  S
C929        H941   1.082       .  S
C930        C931   1.374       .  A
C930        H942   1.082       .  S
C931        H943   1.082       .  S
C932        C933   1.372       .  A
C932        H944   1.082       .  S
C933        H945   1.082       .  S
C934        C935   1.372       .  A
C934        H946   1.082       .  S
C935        H947   1.082       .  S
C936       C3364   1.445       .  S
C937       C3348   1.443       .  S
C938       C3784   1.443       .  S
C939       C3994   1.442       .  S
N950        C955   1.352       .  A
N950        C954   1.352       .  A
N950        H982   1.036       .  S
N951        C958   1.349       .  A
N951        C959   1.350       .  A
N952        C957   1.351       .  A
N952        C956   1.351       .  A
N952        H983   1.036       .  S
N953        C960   1.350       .  A
N953        C961   1.350       .  A
C954        C962   1.388       .  A
C954        C970   1.412       .  A
C955        C971   1.412       .  A
C955        C963   1.388       .  A
C956        C964   1.387       .  A
C956        C973   1.410       .  A
C957        C972   1.411       .  A
C957        C965   1.388       .  A
C958        C970   1.409       .  A
C958        C966   1.387       .  A
C959        C973   1.409       .  A
C959        C967   1.387       .  A
C960        C968   1.387       .  A
C960        C971   1.410       .  A
C961        C969   1.387       .  A
C961        C972   1.410       .  A
C962        C963   1.375       .  A
C962        H974   1.082       .  S
C963        H975   1.082       .  S
C964        C965   1.375       .  A
C964        H976   1.082       .  S
C965        H977   1.082       .  S
C966        C967   1.373       .  A
C966        H978   1.083       .  S
C967        H979   1.082       .  S
C968        C969   1.374       .  A
C968        H980   1.082       .  S
C969        H981   1.082       .  S
C970       C3390   1.445       .  S
C971       C3250   1.445       .  S
C972       C4050   1.445       .  S
C973       C3208   1.444       .  S
C984       C3194   1.432       .  S
C984        N985   1.355       .  A
C984        N989   1.357       .  A
N985        C986   1.356       .  A
C986       C3180   1.432       .  S
C986        N987   1.357       .  A
N987        C988   1.357       .  A
C988       C3166   1.434       .  S
C988        N989   1.357       .  A
N990        C995   1.353       .  A
N990        C994   1.352       .  A
N990       H1022   1.037       .  S
N991        C998   1.349       .  A
N991        C999   1.350       .  A
N992        C997   1.351       .  A
N992        C996   1.351       .  A
N992       H1023   1.035       .  S
N993       C1000   1.350       .  A
N993       C1001   1.349       .  A
C994       C1002   1.388       .  A
C994       C1010   1.413       .  A
C995       C1011   1.412       .  A
C995       C1003   1.387       .  A
C996       C1004   1.388       .  A
C996       C1013   1.411       .  A
C997       C1012   1.411       .  A
C997       C1005   1.388       .  A
C998       C1010   1.410       .  A
C998       C1006   1.387       .  A
C999       C1013   1.410       .  A
C999       C1007   1.387       .  A
C1000      C1008   1.387       .  A
C1000      C1011   1.409       .  A
C1001      C1009   1.387       .  A
C1001      C1012   1.410       .  A
C1002      C1003   1.375       .  A
C1002      H1014   1.082       .  S
C1003      H1015   1.082       .  S
C1004      C1005   1.374       .  A
C1004      H1016   1.082       .  S
C1005      H1017   1.082       .  S
C1006      C1007   1.373       .  A
C1006      H1018   1.082       .  S
C1007      H1019   1.082       .  S
C1008      C1009   1.373       .  A
C1008      H1020   1.082       .  S
C1009      H1021   1.082       .  S
C1010      C3154   1.445       .  S
C1011      C3168   1.448       .  S
C1012      C3910   1.442       .  S
C1013      C4860   1.444       .  S
C1024      C3126   1.434       .  S
C1024      N1025   1.357       .  A
C1024      N1029   1.357       .  A
N1025      C1026   1.356       .  A
C1026      C3138   1.435       .  S
C1026      N1027   1.357       .  A
N1027      C1028   1.357       .  A
C1028      C3110   1.434       .  S
C1028      N1029   1.357       .  A
C1030      C3068   1.432       .  S
C1030      N1031   1.355       .  A
C1030      N1035   1.356       .  A
N1031      C1032   1.356       .  A
C1032      C3096   1.432   1_554  S
C1032      N1033   1.357       .  A
N1033      C1034   1.357       .  A
C1034      C3082   1.433       .  S
C1034      N1035   1.357       .  A
C1036      C3054   1.431       .  S
C1036      N1037   1.356       .  A
C1036      N1041   1.357       .  A
N1037      C1038   1.356       .  A
C1038      C3152   1.431       .  S
C1038      N1039   1.355       .  A
N1039      C1040   1.356       .  A
C1040      C3040   1.431       .  S
C1040      N1041   1.356       .  A
N1042      C1047   1.352       .  A
N1042      C1046   1.352       .  A
N1042      H1074   1.035       .  S
N1043      C1050   1.350       .  A
N1043      C1051   1.350       .  A
N1044      C1049   1.351       .  A
N1044      C1048   1.351       .  A
N1044      H1075   1.036       .  S
N1045      C1052   1.350       .  A
N1045      C1053   1.350       .  A
C1046      C1054   1.388       .  A
C1046      C1062   1.413       .  A
C1047      C1063   1.413       .  A
C1047      C1055   1.388       .  A
C1048      C1056   1.388       .  A
C1048      C1065   1.411       .  A
C1049      C1064   1.411       .  A
C1049      C1057   1.388       .  A
C1050      C1062   1.411       .  A
C1050      C1058   1.387       .  A
C1051      C1065   1.410       .  A
C1051      C1059   1.386       .  A
C1052      C1060   1.387       .  A
C1052      C1063   1.410       .  A
C1053      C1061   1.387       .  A
C1053      C1064   1.410       .  A
C1054      C1055   1.375       .  A
C1054      H1066   1.082       .  S
C1055      H1067   1.082       .  S
C1056      C1057   1.374       .  A
C1056      H1068   1.082       .  S
C1057      H1069   1.082       .  S
C1058      C1059   1.373       .  A
C1058      H1070   1.082       .  S
C1059      H1071   1.082       .  S
C1060      C1061   1.373       .  A
C1060      H1072   1.082       .  S
C1061      H1073   1.082       .  S
C1062      C3070   1.446       .  S
C1063      C3042   1.445       .  S
C1064      C4316   1.444       .  S
C1065      C4120   1.445       .  S
N1076      C1081   1.352       .  A
N1076      C1080   1.352       .  A
N1076      H1108   1.035       .  S
N1077      C1084   1.350       .  A
N1077      C1085   1.351       .  A
N1078      C1083   1.351       .  A
N1078      C1082   1.352       .  A
N1078      H1109   1.036       .  S
N1079      C1086   1.350       .  A
N1079      C1087   1.350       .  A
C1080      C1088   1.388       .  A
C1080      C1096   1.413       .  A
C1081      C1097   1.413       .  A
C1081      C1089   1.388       .  A
C1082      C1090   1.387       .  A
C1082      C1099   1.411       .  A
C1083      C1098   1.412       .  A
C1083      C1091   1.388       .  A
C1084      C1096   1.411       .  A
C1084      C1092   1.387       .  A
C1085      C1099   1.411       .  A
C1085      C1093   1.387       .  A
C1086      C1094   1.387       .  A
C1086      C1097   1.410       .  A
C1087      C1095   1.387       .  A
C1087      C1098   1.410       .  A
C1088      C1089   1.375       .  A
C1088      H1100   1.082       .  S
C1089      H1101   1.082       .  S
C1090      C1091   1.374       .  A
C1090      H1102   1.082       .  S
C1091      H1103   1.082       .  S
C1092      C1093   1.373       .  A
C1092      H1104   1.082       .  S
C1093      H1105   1.082       .  S
C1094      C1095   1.374       .  A
C1094      H1106   1.082       .  S
C1095      H1107   1.082       .  S
C1096      C3112   1.447       .  S
C1097      C3056   1.447       .  S
C1098      C4764   1.444       .  S
C1099      C3434   1.447       .  S
N1110      C1115   1.352       .  A
N1110      C1114   1.353       .  A
N1110      H1142   1.033       .  S
N1111      C1118   1.351       .  A
N1111      C1119   1.350       .  A
N1112      C1117   1.353       .  A
N1112      C1116   1.351       .  A
N1112      H1143   1.034       .  S
N1113      C1120   1.350       .  A
N1113      C1121   1.351       .  A
C1114      C1122   1.388       .  A
C1114      C1130   1.416       .  A
C1115      C1131   1.415       .  A
C1115      C1123   1.388       .  A
C1116      C1124   1.389       .  A
C1116      C1133   1.413       .  A
C1117      C1132   1.413       .  A
C1117      C1125   1.387       .  A
C1118      C1130   1.413       .  A
C1118      C1126   1.387       .  A
C1119      C1133   1.412       .  A
C1119      C1127   1.387       .  A
C1120      C1128   1.388       .  A
C1120      C1131   1.413       .  A
C1121      C1129   1.386       .  A
C1121      C1132   1.412       .  A
C1122      C1123   1.375       .  A
C1122      H1134   1.082       .  S
C1123      H1135   1.082       .  S
C1124      C1125   1.374       .  A
C1124      H1136   1.082       .  S
C1125      H1137   1.082       .  S
C1126      C1127   1.373       .  A
C1126      H1138   1.082       .  S
C1127      H1139   1.082       .  S
C1128      C1129   1.372       .  A
C1128      H1140   1.082       .  S
C1129      H1141   1.082       .  S
C1130      C3140   1.450       .  S
C1131      C3098   1.446       .  S
C1132      C4190   1.449       .  S
C1133      C3026   1.444       .  S
N1144      C1149   1.353       .  A
N1144      C1148   1.352       .  A
N1144      H1176   1.033       .  S
N1145      C1152   1.350       .  A
N1145      C1153   1.351       .  A
N1146      C1151   1.352       .  A
N1146      C1150   1.352       .  A
N1146      H1177   1.034       .  S
N1147      C1154   1.351       .  A
N1147      C1155   1.351       .  A
C1148      C1156   1.388       .  A
C1148      C1164   1.415       .  A
C1149      C1165   1.415       .  A
C1149      C1157   1.388       .  A
C1150      C1158   1.388       .  A
C1150      C1167   1.413       .  A
C1151      C1166   1.414       .  A
C1151      C1159   1.388       .  A
C1152      C1164   1.413       .  A
C1152      C1160   1.388       .  A
C1153      C1167   1.412       .  A
C1153      C1161   1.387       .  A
C1154      C1162   1.387       .  A
C1154      C1165   1.413       .  A
C1155      C1163   1.387       .  A
C1155      C1166   1.413       .  A
C1156      C1157   1.375       .  A
C1156      H1168   1.082       .  S
C1157      H1169   1.082       .  S
C1158      C1159   1.374       .  A
C1158      H1170   1.082       .  S
C1159      H1171   1.082       .  S
C1160      C1161   1.372       .  A
C1160      H1172   1.082       .  S
C1161      H1173   1.082       .  S
C1162      C1163   1.373       .  A
C1162      H1174   1.082       .  S
C1163      H1175   1.082       .  S
C1164      C3182   1.446       .  S
C1165      C3124   1.449       .  S
C1166      C4036   1.447       .  S
C1167      C3824   1.447       .  S
N1178      C1183   1.353       .  A
N1178      C1182   1.353       .  A
N1178      H1210   1.034       .  S
N1179      C1186   1.351       .  A
N1179      C1187   1.351       .  A
N1180      C1185   1.352       .  A
N1180      C1184   1.352       .  A
N1180      H1211   1.034       .  S
N1181      C1188   1.351       .  A
N1181      C1189   1.352       .  A
C1182      C1190   1.388       .  A
C1182      C1198   1.415       .  A
C1183      C1199   1.415       .  A
C1183      C1191   1.388       .  A
C1184      C1192   1.388       .  A
C1184      C1201   1.413       .  A
C1185      C1200   1.414       .  A
C1185      C1193   1.388       .  A
C1186      C1198   1.413       .  A
C1186      C1194   1.387       .  A
C1187      C1201   1.413       .  A
C1187      C1195   1.387       .  A
C1188      C1196   1.387       .  A
C1188      C1199   1.413       .  A
C1189      C1197   1.387       .  A
C1189      C1200   1.413       .  A
C1190      C1191   1.376       .  A
C1190      H1202   1.082       .  S
C1191      H1203   1.082       .  S
C1192      C1193   1.375       .  A
C1192      H1204   1.082       .  S
C1193      H1205   1.082       .  S
C1194      C1195   1.373       .  A
C1194      H1206   1.082       .  S
C1195      H1207   1.082       .  S
C1196      C1197   1.373       .  A
C1196      H1208   1.082       .  S
C1197      H1209   1.082       .  S
C1198      C3196   1.448       .  S
C1199      C3084   1.450       .  S
C1200      C3756   1.449       .  S
C1201      C3502   1.448       .  S
O1212      C1228   1.272       .  A
O1212     Zn1218   2.018       .  S
C1213      O1229   1.272       .  A
C1213      O1226   1.272       .  A
C1213      C3012   1.432       .  S
O1214      C1227   1.273       .  A
O1214     Cd1221   2.070       .  S
O1215      C1233   1.272       .  A
O1215     Cd1224   2.058       .  S
O1216      C1230   1.271       .  A
O1216     Cd1220   2.055       .  S
O1217      C1228   1.271       .  A
O1217     Cd1220   2.057       .  S
Zn1218     O1229   2.014       .  S
Zn1218     O1231   1.998       .  S
Zn1218     O1223   1.937       .  S
O1219      C1230   1.273       .  A
O1219     Cd1224   2.065       .  S
Cd1220     O1222   2.053       .  S
Cd1220     O1223   1.991       .  S
Cd1221     O1225   2.077       .  S
Cd1221     O1234   2.075       .  S
Cd1221     O1223   2.014       .  S
O1222      C1232   1.271       .  A
O1223     Cd1224   1.995       .  S
Cd1224     O1226   2.066       .  S
O1225      C1232   1.274       .  A
C1227      O1231   1.271       .  A
C1227      C2984   1.428       .  S
C1228      C2998   1.431       .  S
C1230      C3028   1.427       .  S
C1232      C3224   1.431       .  S
C1233      O1234   1.273       .  A
C1233      C4442   1.431       .  S
O1235      C1251   1.271       .  A
O1235     Zn1241   2.007   1_545  S
C1236      O1252   1.272       .  A
C1236      O1249   1.272       .  A
C1236      C4470   1.430       .  S
O1237      C1250   1.273   1_455  A
O1237     Cd1244   2.077       .  S
O1238      C1256   1.271       .  A
O1238     Cd1247   2.054       .  S
O1239      C1253   1.273       .  A
O1239     Cd1243   2.068       .  S
O1240      C1251   1.272       .  A
O1240     Cd1243   2.067   1_645  S
Zn1241     O1252   2.012       .  S
Zn1241     O1254   2.003   1_565  S
Zn1241     O1246   1.939   1_655  S
O1242      C1253   1.272       .  A
O1242     Cd1247   2.068       .  S
Cd1243     O1245   2.059   1_565  S
Cd1243     O1246   1.997       .  S
Cd1244     O1248   2.075       .  S
Cd1244     O1257   2.081   1_545  S
Cd1244     O1246   2.015   1_545  S
O1245      C1255   1.272       .  A
O1246     Cd1247   1.993       .  S
Cd1247     O1249   2.061   1_455  S
O1248      C1255   1.274       .  A
C1250      O1254   1.271       .  A
C1250      C2942   1.432       .  S
C1251      C2970   1.430       .  S
C1253      C3530   1.433       .  S
C1255      C2930   1.432       .  S
C1256      O1257   1.274       .  A
C1256      C2956   1.432       .  S
C1258      C2902   1.435       .  S
C1258      N1259   1.357       .  A
C1258      N1263   1.357       .  A
N1259      C1260   1.357       .  A
C1260      C2886   1.434       .  S
C1260      N1261   1.357       .  A
N1261      C1262   1.357       .  A
C1262      C2916   1.435       .  S
C1262      N1263   1.357       .  A
C1264      C2874   1.431       .  S
C1264      N1265   1.356       .  A
C1264      N1269   1.358       .  A
N1265      C1266   1.355       .  A
C1266      C2860   1.427   1_545  S
C1266      N1267   1.355       .  A
N1267      C1268   1.354       .  A
C1268      C2846   1.432       .  S
C1268      N1269   1.357       .  A
C1270      C2830   1.432       .  S
C1270      N1271   1.357       .  A
C1270      N1275   1.356       .  A
N1271      C1272   1.357       .  A
C1272      C2802   1.431       .  S
C1272      N1273   1.356       .  A
N1273      C1274   1.355       .  A
C1274      C2816   1.431       .  S
C1274      N1275   1.355       .  A
N1276      C1281   1.354       .  A
N1276      C1280   1.352       .  A
N1276      H1308   1.035       .  S
N1277      C1284   1.350       .  A
N1277      C1285   1.351       .  A
N1278      C1283   1.351       .  A
N1278      C1282   1.351       .  A
N1278      H1309   1.037       .  S
N1279      C1286   1.349       .  A
N1279      C1287   1.349       .  A
C1280      C1288   1.388       .  A
C1280      C1296   1.415       .  A
C1281      C1297   1.415       .  A
C1281      C1289   1.387       .  A
C1282      C1290   1.387       .  A
C1282      C1299   1.410       .  A
C1283      C1298   1.410       .  A
C1283      C1291   1.388       .  A
C1284      C1296   1.412       .  A
C1284      C1292   1.388       .  A
C1285      C1299   1.410       .  A
C1285      C1293   1.386       .  A
C1286      C1294   1.388       .  A
C1286      C1297   1.410       .  A
C1287      C1295   1.386       .  A
C1287      C1298   1.408       .  A
C1288      C1289   1.375       .  A
C1288      H1300   1.082       .  S
C1289      H1301   1.082       .  S
C1290      C1291   1.373       .  A
C1290      H1302   1.082       .  S
C1291      H1303   1.082       .  S
C1292      C1293   1.374       .  A
C1292      H1304   1.082       .  S
C1293      H1305   1.082       .  S
C1294      C1295   1.372       .  A
C1294      H1306   1.082       .  S
C1295      H1307   1.082       .  S
C1296      C2818   1.446       .  S
C1297      C2844   1.447       .  S
C1298      C3488   1.442       .  S
C1299      C4750   1.446       .  S
N1310      C1315   1.352       .  A
N1310      C1314   1.352       .  A
N1310      H1342   1.034       .  S
N1311      C1318   1.350       .  A
N1311      C1319   1.350       .  A
N1312      C1317   1.351       .  A
N1312      C1316   1.352       .  A
N1312      H1343   1.036       .  S
N1313      C1320   1.351       .  A
N1313      C1321   1.350       .  A
C1314      C1322   1.387       .  A
C1314      C1330   1.413       .  A
C1315      C1331   1.415       .  A
C1315      C1323   1.389       .  A
C1316      C1324   1.387       .  A
C1316      C1333   1.410       .  A
C1317      C1332   1.411       .  A
C1317      C1325   1.388       .  A
C1318      C1330   1.410       .  A
C1318      C1326   1.387       .  A
C1319      C1333   1.409       .  A
C1319      C1327   1.386       .  A
C1320      C1328   1.387       .  A
C1320      C1331   1.412       .  A
C1321      C1329   1.387       .  A
C1321      C1332   1.411       .  A
C1322      C1323   1.376       .  A
C1322      H1334   1.083       .  S
C1323      H1335   1.082       .  S
C1324      C1325   1.375       .  A
C1324      H1336   1.083       .  S
C1325      H1337   1.082       .  S
C1326      C1327   1.372       .  A
C1326      H1338   1.082       .  S
C1327      H1339   1.082       .  S
C1328      C1329   1.374       .  A
C1328      H1340   1.082       .  S
C1329      H1341   1.082       .  S
C1330      C2804   1.444       .  S
C1331      C2888   1.448       .  S
C1332      C3964   1.446       .  S
C1333      C4232   1.444       .  S
C1344      C2776   1.435       .  S
C1344      N1345   1.356       .  A
C1344      N1349   1.357       .  A
N1345      C1346   1.356       .  A
C1346      C2788   1.434       .  S
C1346      N1347   1.357       .  A
N1347      C1348   1.357       .  A
C1348      C2760   1.435       .  S
C1348      N1349   1.358       .  A
N1350      C1355   1.352       .  A
N1350      C1354   1.353       .  A
N1350      H1382   1.039       .  S
N1351      C1358   1.351       .  A
N1351      C1359   1.351       .  A
N1352      C1357   1.351       .  A
N1352      C1356   1.351       .  A
N1352      H1383   1.039       .  S
N1353      C1360   1.350       .  A
N1353      C1361   1.350       .  A
C1354      C1362   1.388       .  A
C1354      C1370   1.414       .  A
C1355      C1371   1.415       .  A
C1355      C1363   1.388       .  A
C1356      C1364   1.388       .  A
C1356      C1373   1.412       .  A
C1357      C1372   1.412       .  A
C1357      C1365   1.388       .  A
C1358      C1370   1.412       .  A
C1358      C1366   1.387       .  A
C1359      C1373   1.411       .  A
C1359      C1367   1.387       .  A
C1360      C1368   1.387       .  A
C1360      C1371   1.411       .  A
C1361      C1369   1.387       .  A
C1361      C1372   1.411       .  A
C1362      C1363   1.374       .  A
C1362      H1374   1.082       .  S
C1363      H1375   1.082       .  S
C1364      C1365   1.373       .  A
C1364      H1376   1.082       .  S
C1365      H1377   1.082       .  S
C1366      C1367   1.374       .  A
C1366      H1378   1.082       .  S
C1367      H1379   1.082       .  S
C1368      C1369   1.374       .  A
C1368      H1380   1.082       .  S
C1369      H1381   1.082       .  S
C1370      C2762   1.449       .  S
C1371      C2832   1.447       .  S
C1372      C4876   1.445       .  S
C1373      C3000   1.446       .  S
N1384      C1389   1.353       .  A
N1384      C1388   1.351       .  A
N1384      H1416   1.033       .  S
N1385      C1392   1.349       .  A
N1385      C1393   1.350       .  A
N1386      C1391   1.351       .  A
N1386      C1390   1.353       .  A
N1386      H1417   1.033       .  S
N1387      C1394   1.352       .  A
N1387      C1395   1.350       .  A
C1388      C1396   1.390       .  A
C1388      C1404   1.415       .  A
C1389      C1405   1.412       .  A
C1389      C1397   1.386       .  A
C1390      C1398   1.387       .  A
C1390      C1407   1.413       .  A
C1391      C1406   1.414       .  A
C1391      C1399   1.389       .  A
C1392      C1404   1.411       .  A
C1392      C1400   1.387       .  A
C1393      C1407   1.411       .  A
C1393      C1401   1.387       .  A
C1394      C1402   1.386       .  A
C1394      C1405   1.412       .  A
C1395      C1403   1.388       .  A
C1395      C1406   1.414       .  A
C1396      C1397   1.375       .  A
C1396      H1408   1.082       .  S
C1397      H1409   1.082       .  S
C1398      C1399   1.374       .  A
C1398      H1410   1.082       .  S
C1399      H1411   1.082       .  S
C1400      C1401   1.372       .  A
C1400      H1412   1.082       .  S
C1401      H1413   1.082       .  S
C1402      C1403   1.373       .  A
C1402      H1414   1.082       .  S
C1403      H1415   1.082       .  S
C1404      C2858   1.441       .  S
C1405      C2914   1.450       .  S
C1406      C4204   1.444       .  S
C1407      C3896   1.448       .  S
N1418      C1423   1.353       .  A
N1418      C1422   1.353       .  A
N1418      H1450   1.032       .  S
N1419      C1426   1.351       .  A
N1419      C1427   1.351       .  A
N1420      C1425   1.352       .  A
N1420      C1424   1.352       .  A
N1420      H1451   1.035       .  S
N1421      C1428   1.351       .  A
N1421      C1429   1.350       .  A
C1422      C1430   1.388       .  A
C1422      C1438   1.417       .  A
C1423      C1439   1.417       .  A
C1423      C1431   1.388       .  A
C1424      C1432   1.388       .  A
C1424      C1441   1.413       .  A
C1425      C1440   1.412       .  A
C1425      C1433   1.387       .  A
C1426      C1438   1.414       .  A
C1426      C1434   1.388       .  A
C1427      C1441   1.412       .  A
C1427      C1435   1.386       .  A
C1428      C1436   1.387       .  A
C1428      C1439   1.413       .  A
C1429      C1437   1.387       .  A
C1429      C1440   1.412       .  A
C1430      C1431   1.375       .  A
C1430      H1442   1.082       .  S
C1431      H1443   1.082       .  S
C1432      C1433   1.373       .  A
C1432      H1444   1.082       .  S
C1433      H1445   1.082       .  S
C1434      C1435   1.373       .  A
C1434      H1446   1.082       .  S
C1435      H1447   1.082       .  S
C1436      C1437   1.373       .  A
C1436      H1448   1.082       .  S
C1437      H1449   1.083       .  S
C1438      C2790   1.448       .  S
C1439      C2872   1.449       .  S
C1440      C2944   1.446       .  S
C1441      C2746   1.447       .  S
N1452      C1457   1.353       .  A
N1452      C1456   1.352       .  A
N1452      H1484   1.035       .  S
N1453      C1460   1.351       .  A
N1453      C1461   1.352       .  A
N1454      C1459   1.353       .  A
N1454      C1458   1.352       .  A
N1454      H1485   1.035       .  S
N1455      C1462   1.351       .  A
N1455      C1463   1.350       .  A
C1456      C1464   1.388       .  A
C1456      C1472   1.415       .  A
C1457      C1473   1.414       .  A
C1457      C1465   1.387       .  A
C1458      C1466   1.388       .  A
C1458      C1475   1.413       .  A
C1459      C1474   1.412       .  A
C1459      C1467   1.387       .  A
C1460      C1472   1.413       .  A
C1460      C1468   1.387       .  A
C1461      C1475   1.413       .  A
C1461      C1469   1.386       .  A
C1462      C1470   1.387       .  A
C1462      C1473   1.411       .  A
C1463      C1471   1.387       .  A
C1463      C1474   1.410       .  A
C1464      C1465   1.376       .  A
C1464      H1476   1.082       .  S
C1465      H1477   1.082       .  S
C1466      C1467   1.374       .  A
C1466      H1478   1.082       .  S
C1467      H1479   1.082       .  S
C1468      C1469   1.375       .  A
C1468      H1480   1.082       .  S
C1469      H1481   1.082       .  S
C1470      C1471   1.372       .  A
C1470      H1482   1.082       .  S
C1471      H1483   1.082       .  S
C1472      C2774   1.450       .  S
C1473      C2900   1.449       .  S
C1474      C3742   1.446       .  S
C1475      C3420   1.449       .  S
C1486      C2720   1.437       .  S
C1486      N1487   1.359       .  A
C1486      N1491   1.357       .  A
N1487      C1488   1.359       .  A
C1488      C2704   1.433       .  S
C1488      N1489   1.355       .  A
N1489      C1490   1.354       .  A
C1490      C2734   1.431       .  S
C1490      N1491   1.356       .  A
N1492      C1497   1.353       .  A
N1492      C1496   1.352       .  A
N1492      H1524   1.034       .  S
N1493      C1500   1.351       .  A
N1493      C1501   1.351       .  A
N1494      C1499   1.351       .  A
N1494      C1498   1.352       .  A
N1494      H1525   1.035       .  S
N1495      C1502   1.351       .  A
N1495      C1503   1.350       .  A
C1496      C1504   1.388       .  A
C1496      C1512   1.415       .  A
C1497      C1513   1.416       .  A
C1497      C1505   1.388       .  A
C1498      C1506   1.387       .  A
C1498      C1515   1.411       .  A
C1499      C1514   1.412       .  A
C1499      C1507   1.388       .  A
C1500      C1512   1.412       .  A
C1500      C1508   1.387       .  A
C1501      C1515   1.412       .  A
C1501      C1509   1.387       .  A
C1502      C1510   1.387       .  A
C1502      C1513   1.412       .  A
C1503      C1511   1.387       .  A
C1503      C1514   1.411       .  A
C1504      C1505   1.376       .  A
C1504      H1516   1.082       .  S
C1505      H1517   1.082       .  S
C1506      C1507   1.374       .  A
C1506      H1518   1.082       .  S
C1507      H1519   1.082       .  S
C1508      C1509   1.372       .  A
C1508      H1520   1.082       .  S
C1509      H1521   1.082       .  S
C1510      C1511   1.373       .  A
C1510      H1522   1.082       .  S
C1511      H1523   1.082       .  S
C1512      C2706   1.447       .  S
C1513      C2690   1.450       .  S
C1514      C4356   1.445       .  S
C1515      C3854   1.447       .  S
C1526      C2648   1.431       .  S
C1526      N1527   1.357       .  A
C1526      N1531   1.357       .  A
N1527      C1528   1.356       .  A
C1528      C2662   1.432       .  S
C1528      N1529   1.356       .  A
N1529      C1530   1.356       .  A
C1530      C2676   1.434       .  S
C1530      N1531   1.356       .  A
C1532      C2636   1.436       .  S
C1532      N1533   1.357       .  A
C1532      N1537   1.357       .  A
N1533      C1534   1.357       .  A
C1534      C2620   1.437       .  S
C1534      N1535   1.357       .  A
N1535      C1536   1.358       .  A
C1536      C2692   1.436       .  S
C1536      N1537   1.358       .  A
N1538      C1543   1.354       .  A
N1538      C1542   1.352       .  A
N1538      H1570   1.034       .  S
N1539      C1546   1.350       .  A
N1539      C1547   1.351       .  A
N1540      C1545   1.351       .  A
N1540      C1544   1.352       .  A
N1540      H1571   1.035       .  S
N1541      C1548   1.351       .  A
N1541      C1549   1.351       .  A
C1542      C1550   1.388       .  A
C1542      C1558   1.415       .  A
C1543      C1559   1.417       .  A
C1543      C1551   1.388       .  A
C1544      C1552   1.388       .  A
C1544      C1561   1.412       .  A
C1545      C1560   1.412       .  A
C1545      C1553   1.388       .  A
C1546      C1558   1.412       .  A
C1546      C1554   1.388       .  A
C1547      C1561   1.411       .  A
C1547      C1555   1.386       .  A
C1548      C1556   1.387       .  A
C1548      C1559   1.413       .  A
C1549      C1557   1.387       .  A
C1549      C1560   1.412       .  A
C1550      C1551   1.376       .  A
C1550      H1562   1.083       .  S
C1551      H1563   1.082       .  S
C1552      C1553   1.374       .  A
C1552      H1564   1.082       .  S
C1553      H1565   1.082       .  S
C1554      C1555   1.372       .  A
C1554      H1566   1.082       .  S
C1555      H1567   1.082       .  S
C1556      C1557   1.374       .  A
C1556      H1568   1.082       .  S
C1557      H1569   1.082       .  S
C1558      C2650   1.446       .  S
C1559      C2622   1.452       .  S
C1560      C4820   1.446       .  S
C1561      C4148   1.448       .  S
C1572      C2608   1.433       .  S
C1572      N1573   1.357       .  A
C1572      N1577   1.357       .  A
N1573      C1574   1.357       .  A
C1574      C2594   1.433       .  S
C1574      N1575   1.357       .  A
N1575      C1576   1.357       .  A
C1576      C2578   1.434       .  S
C1576      N1577   1.357       .  A
N1578      C1583   1.353       .  A
N1578      C1582   1.353       .  A
N1578      H1610   1.036       .  S
N1579      C1586   1.351       .  A
N1579      C1587   1.351       .  A
N1580      C1585   1.353       .  A
N1580      C1584   1.352       .  A
N1580      H1611   1.035       .  S
N1581      C1588   1.350       .  A
N1581      C1589   1.351       .  A
C1582      C1590   1.388       .  A
C1582      C1598   1.415       .  A
C1583      C1599   1.414       .  A
C1583      C1591   1.388       .  A
C1584      C1592   1.388       .  A
C1584      C1601   1.413       .  A
C1585      C1600   1.413       .  A
C1585      C1593   1.388       .  A
C1586      C1598   1.412       .  A
C1586      C1594   1.387       .  A
C1587      C1601   1.412       .  A
C1587      C1595   1.386       .  A
C1588      C1596   1.387       .  A
C1588      C1599   1.411       .  A
C1589      C1597   1.387       .  A
C1589      C1600   1.411       .  A
C1590      C1591   1.375       .  A
C1590      H1602   1.082       .  S
C1591      H1603   1.082       .  S
C1592      C1593   1.373       .  A
C1592      H1604   1.082       .  S
C1593      H1605   1.082       .  S
C1594      C1595   1.374       .  A
C1594      H1606   1.082       .  S
C1595      H1607   1.082       .  S
C1596      C1597   1.373       .  A
C1596      H1608   1.082       .  S
C1597      H1609   1.082       .  S
C1598      C2634   1.450       .  S
C1599      C2592   1.448       .  S
C1600      C2564   1.448       .  S
C1601      C4288   1.448       .  S
N1612      C1617   1.353       .  A
N1612      C1616   1.353       .  A
N1612      H1644   1.035       .  S
N1613      C1620   1.351       .  A
N1613      C1621   1.351       .  A
N1614      C1619   1.352       .  A
N1614      C1618   1.353       .  A
N1614      H1645   1.035       .  S
N1615      C1622   1.352       .  A
N1615      C1623   1.352       .  A
C1616      C1624   1.388       .  A
C1616      C1632   1.414       .  A
C1617      C1633   1.415       .  A
C1617      C1625   1.388       .  A
C1618      C1626   1.388       .  A
C1618      C1635   1.413       .  A
C1619      C1634   1.413       .  A
C1619      C1627   1.388       .  A
C1620      C1632   1.412       .  A
C1620      C1628   1.387       .  A
C1621      C1635   1.412       .  A
C1621      C1629   1.387       .  A
C1622      C1630   1.387       .  A
C1622      C1633   1.413       .  A
C1623      C1631   1.387       .  A
C1623      C1634   1.414       .  A
C1624      C1625   1.376       .  A
C1624      H1636   1.083       .  S
C1625      H1637   1.082       .  S
C1626      C1627   1.375       .  A
C1626      H1638   1.082       .  S
C1627      H1639   1.082       .  S
C1628      C1629   1.373       .  A
C1628      H1640   1.082       .  S
C1629      H1641   1.082       .  S
C1630      C1631   1.374       .  A
C1630      H1642   1.082       .  S
C1631      H1643   1.082       .  S
C1632      C2580   1.449       .  S
C1633      C2718   1.452       .  S
C1634      C3924   1.449       .  S
C1635      C3014   1.448       .  S
N1646      C1651   1.352       .  A
N1646      C1650   1.353       .  A
N1646      H1678   1.035       .  S
N1647      C1654   1.351       .  A
N1647      C1655   1.350       .  A
N1648      C1653   1.352       .  A
N1648      C1652   1.351       .  A
N1648      H1679   1.035       .  S
N1649      C1656   1.350       .  A
N1649      C1657   1.351       .  A
C1650      C1658   1.387       .  A
C1650      C1666   1.414       .  A
C1651      C1667   1.414       .  A
C1651      C1659   1.388       .  A
C1652      C1660   1.389       .  A
C1652      C1669   1.412       .  A
C1653      C1668   1.412       .  A
C1653      C1661   1.387       .  A
C1654      C1666   1.411       .  A
C1654      C1662   1.387       .  A
C1655      C1669   1.411       .  A
C1655      C1663   1.387       .  A
C1656      C1664   1.387       .  A
C1656      C1667   1.412       .  A
C1657      C1665   1.386       .  A
C1657      C1668   1.411       .  A
C1658      C1659   1.375       .  A
C1658      H1670   1.082       .  S
C1659      H1671   1.082       .  S
C1660      C1661   1.374       .  A
C1660      H1672   1.082       .  S
C1661      H1673   1.082       .  S
C1662      C1663   1.373       .  A
C1662      H1674   1.082       .  S
C1663      H1675   1.082       .  S
C1664      C1665   1.373       .  A
C1664      H1676   1.082       .  S
C1665      H1677   1.082       .  S
C1666      C2678   1.449       .  S
C1667      C2732   1.445       .  S
C1668      C2958   1.448       .  S
C1669      C3952   1.443       .  S
N1680      C1685   1.352       .  A
N1680      C1684   1.353       .  A
N1680      H1712   1.036       .  S
N1681      C1688   1.350       .  A
N1681      C1689   1.349       .  A
N1682      C1687   1.352       .  A
N1682      C1686   1.351       .  A
N1682      H1713   1.036       .  S
N1683      C1690   1.350       .  A
N1683      C1691   1.350       .  A
C1684      C1692   1.387       .  A
C1684      C1700   1.413       .  A
C1685      C1701   1.413       .  A
C1685      C1693   1.388       .  A
C1686      C1694   1.388       .  A
C1686      C1703   1.412       .  A
C1687      C1702   1.411       .  A
C1687      C1695   1.388       .  A
C1688      C1700   1.409       .  A
C1688      C1696   1.387       .  A
C1689      C1703   1.409       .  A
C1689      C1697   1.387       .  A
C1690      C1698   1.387       .  A
C1690      C1701   1.410       .  A
C1691      C1699   1.387       .  A
C1691      C1702   1.411       .  A
C1692      C1693   1.375       .  A
C1692      H1704   1.082       .  S
C1693      H1705   1.082       .  S
C1694      C1695   1.374       .  A
C1694      H1706   1.082       .  S
C1695      H1707   1.082       .  S
C1696      C1697   1.373       .  A
C1696      H1708   1.082       .  S
C1697      H1709   1.082       .  S
C1698      C1699   1.374       .  A
C1698      H1710   1.082       .  S
C1699      H1711   1.082       .  S
C1700      C2606   1.447       .  S
C1701      C2664   1.446       .  S
C1702      C4092   1.446       .  S
C1703      C4022   1.443       .  S
C1714      C2524   1.431       .  S
C1714      N1715   1.356       .  A
C1714      N1719   1.357       .  A
N1715      C1716   1.356       .  A
C1716      C2550   1.429       .  S
C1716      N1717   1.355       .  A
N1717      C1718   1.355       .  A
C1718      C2538   1.431       .  S
C1718      N1719   1.356       .  A
N1720      C1725   1.353       .  A
N1720      C1724   1.352       .  A
N1720      H1752   1.035       .  S
N1721      C1728   1.350       .  A
N1721      C1729   1.351       .  A
N1722      C1727   1.351       .  A
N1722      C1726   1.352       .  A
N1722      H1753   1.036       .  S
N1723      C1730   1.350       .  A
N1723      C1731   1.350       .  A
C1724      C1732   1.388       .  A
C1724      C1740   1.414       .  A
C1725      C1741   1.415       .  A
C1725      C1733   1.388       .  A
C1726      C1734   1.387       .  A
C1726      C1743   1.411       .  A
C1727      C1742   1.412       .  A
C1727      C1735   1.388       .  A
C1728      C1740   1.411       .  A
C1728      C1736   1.387       .  A
C1729      C1743   1.410       .  A
C1729      C1737   1.386       .  A
C1730      C1738   1.387       .  A
C1730      C1741   1.411       .  A
C1731      C1739   1.387       .  A
C1731      C1742   1.410       .  A
C1732      C1733   1.376       .  A
C1732      H1744   1.082       .  S
C1733      H1745   1.082       .  S
C1734      C1735   1.375       .  A
C1734      H1746   1.082       .  S
C1735      H1747   1.082       .  S
C1736      C1737   1.373       .  A
C1736      H1748   1.082       .  S
C1737      H1749   1.082       .  S
C1738      C1739   1.373       .  A
C1738      H1750   1.082       .  S
C1739      H1751   1.082       .  S
C1740      C2536   1.446       .  S
C1741      C2508   1.448       .  S
C1742      C4804   1.445       .  S
C1743      C4736   1.447       .  S
C1754      C2510   1.433       .  S
C1754      N1755   1.357       .  A
C1754      N1759   1.357       .  A
N1755      C1756   1.356       .  A
C1756      C2494   1.432       .  S
C1756      N1757   1.356       .  A
N1757      C1758   1.356       .  A
C1758      C2480   1.433       .  S
C1758      N1759   1.357       .  A
C1760      C2438   1.437       .  S
C1760      N1761   1.358       .  A
C1760      N1765   1.358       .  A
N1761      C1762   1.358       .  A
C1762      C2452   1.436       .  S
C1762      N1763   1.357       .  A
N1763      C1764   1.357       .  A
C1764      C2468   1.436       .  S
C1764      N1765   1.357       .  A
C1766      C2424   1.431       .  S
C1766      N1767   1.356       .  A
C1766      N1771   1.356       .  A
N1767      C1768   1.356       .  A
C1768      C2412   1.432       .  S
C1768      N1769   1.357       .  A
N1769      C1770   1.356       .  A
C1770      C2398   1.433       .  S
C1770      N1771   1.356       .  A
N1772      C1777   1.352       .  A
N1772      C1776   1.353       .  A
N1772      H1804   1.035       .  S
N1773      C1780   1.351       .  A
N1773      C1781   1.350       .  A
N1774      C1779   1.352       .  A
N1774      C1778   1.352       .  A
N1774      H1805   1.037       .  S
N1775      C1782   1.350       .  A
N1775      C1783   1.350       .  A
C1776      C1784   1.388       .  A
C1776      C1792   1.414       .  A
C1777      C1793   1.414       .  A
C1777      C1785   1.388       .  A
C1778      C1786   1.388       .  A
C1778      C1795   1.411       .  A
C1779      C1794   1.412       .  A
C1779      C1787   1.387       .  A
C1780      C1792   1.411       .  A
C1780      C1788   1.386       .  A
C1781      C1795   1.411       .  A
C1781      C1789   1.388       .  A
C1782      C1790   1.387       .  A
C1782      C1793   1.411       .  A
C1783      C1791   1.386       .  A
C1783      C1794   1.410       .  A
C1784      C1785   1.375       .  A
C1784      H1796   1.082       .  S
C1785      H1797   1.082       .  S
C1786      C1787   1.375       .  A
C1786      H1798   1.082       .  S
C1787      H1799   1.082       .  S
C1788      C1789   1.374       .  A
C1788      H1800   1.082       .  S
C1789      H1801   1.083       .  S
C1790      C1791   1.373       .  A
C1790      H1802   1.082       .  S
C1791      H1803   1.082       .  S
C1792      C2466   1.450       .  S
C1793      C2426   1.445       .  S
C1794      C4260   1.447       .  S
C1795      C4344   1.445       .  S
N1806      C1811   1.352       .  A
N1806      C1810   1.352       .  A
N1806      H1838   1.035       .  S
N1807      C1814   1.350       .  A
N1807      C1815   1.351       .  A
N1808      C1813   1.351       .  A
N1808      C1812   1.352       .  A
N1808      H1839   1.036       .  S
N1809      C1816   1.350       .  A
N1809      C1817   1.350       .  A
C1810      C1818   1.388       .  A
C1810      C1826   1.413       .  A
C1811      C1827   1.414       .  A
C1811      C1819   1.388       .  A
C1812      C1820   1.388       .  A
C1812      C1829   1.411       .  A
C1813      C1828   1.411       .  A
C1813      C1821   1.388       .  A
C1814      C1826   1.412       .  A
C1814      C1822   1.387       .  A
C1815      C1829   1.411       .  A
C1815      C1823   1.386       .  A
C1816      C1824   1.387       .  A
C1816      C1827   1.411       .  A
C1817      C1825   1.387       .  A
C1817      C1828   1.410       .  A
C1818      C1819   1.376       .  A
C1818      H1830   1.082       .  S
C1819      H1831   1.082       .  S
C1820      C1821   1.374       .  A
C1820      H1832   1.082       .  S
C1821      H1833   1.082       .  S
C1822      C1823   1.374       .  A
C1822      H1834   1.082       .  S
C1823      H1835   1.082       .  S
C1824      C1825   1.374       .  A
C1824      H1836   1.082       .  S
C1825      H1837   1.082       .  S
C1826      C2396   1.447       .  S
C1827      C2482   1.447       .  S
C1828      C2986   1.445       .  S
C1829      C2382   1.447       .  S
N1840      C1845   1.354       .  A
N1840      C1844   1.351       .  A
N1840      H1872   1.034       .  S
N1841      C1848   1.350       .  A
N1841      C1849   1.351       .  A
N1842      C1847   1.351       .  A
N1842      C1846   1.353       .  A
N1842      H1873   1.035       .  S
N1843      C1850   1.351       .  A
N1843      C1851   1.350       .  A
C1844      C1852   1.388       .  A
C1844      C1860   1.414       .  A
C1845      C1861   1.415       .  A
C1845      C1853   1.388       .  A
C1846      C1854   1.387       .  A
C1846      C1863   1.412       .  A
C1847      C1862   1.412       .  A
C1847      C1855   1.388       .  A
C1848      C1860   1.411       .  A
C1848      C1856   1.388       .  A
C1849      C1863   1.410       .  A
C1849      C1857   1.386       .  A
C1850      C1858   1.387       .  A
C1850      C1861   1.411       .  A
C1851      C1859   1.387       .  A
C1851      C1862   1.411       .  A
C1852      C1853   1.375       .  A
C1852      H1864   1.082       .  S
C1853      H1865   1.082       .  S
C1854      C1855   1.374       .  A
C1854      H1866   1.082       .  S
C1855      H1867   1.082       .  S
C1856      C1857   1.373       .  A
C1856      H1868   1.082       .  S
C1857      H1869   1.082       .  S
C1858      C1859   1.373       .  A
C1858      H1870   1.082       .  S
C1859      H1871   1.082       .  S
C1860      C2552   1.444       .  S
C1861      C2454   1.450       .  S
C1862      C4062   1.443       .  S
C1863      C3462   1.448       .  S
N1874      C1879   1.352       .  A
N1874      C1878   1.354       .  A
N1874      H1906   1.034       .  S
N1875      C1882   1.351       .  A
N1875      C1883   1.351       .  A
N1876      C1881   1.353       .  A
N1876      C1880   1.352       .  A
N1876      H1907   1.034       .  S
N1877      C1884   1.350       .  A
N1877      C1885   1.351       .  A
C1878      C1886   1.388       .  A
C1878      C1894   1.416       .  A
C1879      C1895   1.416       .  A
C1879      C1887   1.389       .  A
C1880      C1888   1.389       .  A
C1880      C1897   1.414       .  A
C1881      C1896   1.414       .  A
C1881      C1889   1.388       .  A
C1882      C1894   1.413       .  A
C1882      C1890   1.387       .  A
C1883      C1897   1.412       .  A
C1883      C1891   1.387       .  A
C1884      C1892   1.388       .  A
C1884      C1895   1.413       .  A
C1885      C1893   1.387       .  A
C1885      C1896   1.412       .  A
C1886      C1887   1.375       .  A
C1886      H1898   1.082       .  S
C1887      H1899   1.082       .  S
C1888      C1889   1.373       .  A
C1888      H1900   1.082       .  S
C1889      H1901   1.082       .  S
C1890      C1891   1.373       .  A
C1890      H1902   1.082       .  S
C1891      H1903   1.082       .  S
C1892      C1893   1.373       .  A
C1892      H1904   1.082       .  S
C1893      H1905   1.082       .  S
C1894      C2440   1.452       .  S
C1895      C2496   1.447       .  S
C1896      C3866   1.448       .  S
C1897      C3812   1.445       .  S
N1908      C1913   1.352       .  A
N1908      C1912   1.352       .  A
N1908      H1940   1.033       .  S
N1909      C1916   1.350       .  A
N1909      C1917   1.350       .  A
N1910      C1915   1.352       .  A
N1910      C1914   1.351       .  A
N1910      H1941   1.035       .  S
N1911      C1918   1.350       .  A
N1911      C1919   1.350       .  A
C1912      C1920   1.388       .  A
C1912      C1928   1.414       .  A
C1913      C1929   1.414       .  A
C1913      C1921   1.388       .  A
C1914      C1922   1.388       .  A
C1914      C1931   1.412       .  A
C1915      C1930   1.411       .  A
C1915      C1923   1.387       .  A
C1916      C1928   1.412       .  A
C1916      C1924   1.387       .  A
C1917      C1931   1.411       .  A
C1917      C1925   1.386       .  A
C1918      C1926   1.387       .  A
C1918      C1929   1.411       .  A
C1919      C1927   1.387       .  A
C1919      C1930   1.411       .  A
C1920      C1921   1.375       .  A
C1920      H1932   1.082       .  S
C1921      H1933   1.082       .  S
C1922      C1923   1.374       .  A
C1922      H1934   1.082       .  S
C1923      H1935   1.082       .  S
C1924      C1925   1.373       .  A
C1924      H1936   1.082       .  S
C1925      H1937   1.082       .  S
C1926      C1927   1.372       .  A
C1926      H1938   1.082       .  S
C1927      H1939   1.082       .  S
C1928      C2410   1.447       .  S
C1929      C2522   1.446       .  S
C1930      C3518   1.444       .  S
C1931      C2972   1.445       .  S
O1942      C1958   1.271       .  A
O1942     Zn1948   2.008       .  S
C1943      O1959   1.272       .  A
C1943      O1956   1.272       .  A
C1943      C4386   1.433       .  S
O1944      C1957   1.273       .  A
O1944     Cd1951   2.074       .  S
O1945      C1963   1.272       .  A
O1945     Cd1954   2.055       .  S
O1946      C1960   1.273       .  A
O1946     Cd1950   2.065   1_655  S
O1947      C1958   1.271       .  A
O1947     Cd1950   2.062       .  S
Zn1948     O1959   2.014   1_455  S
Zn1948     O1961   1.998       .  S
Zn1948     O1953   1.939       .  S
O1949      C1960   1.273       .  A
O1949     Cd1954   2.067       .  S
Cd1950     O1952   2.055       .  S
Cd1950     O1953   1.994       .  S
Cd1951     O1955   2.084       .  S
Cd1951     O1964   2.082       .  S
Cd1951     O1953   2.016       .  S
O1952      C1962   1.271       .  A
O1953     Cd1954   1.994   1_455  S
Cd1954     O1956   2.065       .  S
O1955      C1962   1.275       .  A
C1957      O1961   1.270       .  A
C1957      C2370   1.430       .  S
C1958      C3210   1.429       .  S
C1960      C2384   1.432       .  S
C1962      C2566   1.433       .  S
C1963      O1964   1.275   1_655  A
C1963      C2748   1.432       .  S
C1965      C2340   1.432       .  S
C1965      N1966   1.357       .  A
C1965      N1970   1.356       .  A
N1966      C1967   1.357       .  A
C1967      C2354   1.433       .  S
C1967      N1968   1.356       .  A
N1968      C1969   1.356       .  A
C1969      C2326   1.432       .  S
C1969      N1970   1.356       .  A
N1971      C1976   1.351       .  A
N1971      C1975   1.353       .  A
N1971      H2003   1.037       .  S
N1972      C1979   1.350       .  A
N1972      C1980   1.350       .  A
N1973      C1978   1.352       .  A
N1973      C1977   1.351       .  A
N1973      H2004   1.036       .  S
N1974      C1981   1.350       .  A
N1974      C1982   1.350       .  A
C1975      C1983   1.387       .  A
C1975      C1991   1.413       .  A
C1976      C1992   1.412       .  A
C1976      C1984   1.388       .  A
C1977      C1985   1.387       .  A
C1977      C1994   1.411       .  A
C1978      C1993   1.412       .  A
C1978      C1986   1.388       .  A
C1979      C1991   1.410       .  A
C1979      C1987   1.387       .  A
C1980      C1994   1.410       .  A
C1980      C1988   1.387       .  A
C1981      C1989   1.387       .  A
C1981      C1992   1.411       .  A
C1982      C1990   1.387       .  A
C1982      C1993   1.410       .  A
C1983      C1984   1.376       .  A
C1983      H1995   1.082       .  S
C1984      H1996   1.083       .  S
C1985      C1986   1.375       .  A
C1985      H1997   1.083       .  S
C1986      H1998   1.082       .  S
C1987      C1988   1.373       .  A
C1987      H1999   1.082       .  S
C1988      H2000   1.082       .  S
C1989      C1990   1.375       .  A
C1989      H2001   1.082       .  S
C1990      H2002   1.082       .  S
C1991      C2314   1.448       .  S
C1992      C2328   1.446       .  S
C1993      C4008   1.446       .  S
C1994      C4300   1.444       .  S
C2005      C2270   1.433       .  S
C2005      N2006   1.357       .  A
C2005      N2010   1.357       .  A
N2006      C2007   1.357       .  A
C2007      C2300   1.434       .  S
C2007      N2008   1.357       .  A
N2008      C2009   1.357       .  A
C2009      C2284   1.434       .  S
C2009      N2010   1.357       .  A
C2011      C2312   1.436       .  S
C2011      N2012   1.359       .  A
C2011      N2016   1.357       .  A
N2012      C2013   1.359       .  A
C2013      C2244   1.436       .  S
C2013      N2014   1.355       .  A
N2014      C2015   1.355       .  A
C2015      C2256   1.432       .  S
C2015      N2016   1.356       .  A
N2017      C2022   1.352       .  A
N2017      C2021   1.353       .  A
N2017      H2049   1.035       .  S
N2018      C2025   1.352       .  A
N2018      C2026   1.350       .  A
N2019      C2024   1.353       .  A
N2019      C2023   1.351       .  A
N2019      H2050   1.035       .  S
N2020      C2027   1.350       .  A
N2020      C2028   1.351       .  A
C2021      C2029   1.388       .  A
C2021      C2037   1.414       .  A
C2022      C2038   1.414       .  A
C2022      C2030   1.388       .  A
C2023      C2031   1.388       .  A
C2023      C2040   1.413       .  A
C2024      C2039   1.413       .  A
C2024      C2032   1.388       .  A
C2025      C2037   1.412       .  A
C2025      C2033   1.386       .  A
C2026      C2040   1.413       .  A
C2026      C2034   1.388       .  A
C2027      C2035   1.387       .  A
C2027      C2038   1.411       .  A
C2028      C2036   1.386       .  A
C2028      C2039   1.411       .  A
C2029      C2030   1.376       .  A
C2029      H2041   1.082       .  S
C2030      H2042   1.082       .  S
C2031      C2032   1.375       .  A
C2031      H2043   1.082       .  S
C2032      H2044   1.082       .  S
C2033      C2034   1.374       .  A
C2033      H2045   1.082       .  S
C2034      H2046   1.082       .  S
C2035      C2036   1.373       .  A
C2035      H2047   1.082       .  S
C2036      H2048   1.082       .  S
C2037      C2242   1.451       .  S
C2038      C2272   1.446       .  S
C2039      C2928   1.448       .  S
C2040      C4216   1.445       .  S
C2051      C2200   1.431       .  S
C2051      N2052   1.355       .  A
C2051      N2056   1.357       .  A
N2052      C2053   1.355       .  A
C2053      C2216   1.429       .  S
C2053      N2054   1.355       .  A
N2054      C2055   1.356       .  A
C2055      C2228   1.432   1_554  S
C2055      N2056   1.357       .  A
N2057      C2062   1.352       .  A
N2057      C2061   1.352       .  A
N2057      H2089   1.036       .  S
N2058      C2065   1.350       .  A
N2058      C2066   1.350       .  A
N2059      C2064   1.352       .  A
N2059      C2063   1.352       .  A
N2059      H2090   1.036       .  S
N2060      C2067   1.350       .  A
N2060      C2068   1.350       .  A
C2061      C2069   1.389       .  A
C2061      C2077   1.413       .  A
C2062      C2078   1.412       .  A
C2062      C2070   1.387       .  A
C2063      C2071   1.387       .  A
C2063      C2080   1.412       .  A
C2064      C2079   1.412       .  A
C2064      C2072   1.388       .  A
C2065      C2077   1.410       .  A
C2065      C2073   1.387       .  A
C2066      C2080   1.410       .  A
C2066      C2074   1.387       .  A
C2067      C2075   1.387       .  A
C2067      C2078   1.410       .  A
C2068      C2076   1.387       .  A
C2068      C2079   1.410       .  A
C2069      C2070   1.375       .  A
C2069      H2081   1.082       .  S
C2070      H2082   1.083       .  S
C2071      C2072   1.375       .  A
C2071      H2083   1.082       .  S
C2072      H2084   1.082       .  S
C2073      C2074   1.374       .  A
C2073      H2085   1.082       .  S
C2074      H2086   1.082       .  S
C2075      C2076   1.374       .  A
C2075      H2087   1.082       .  S
C2076      H2088   1.082       .  S
C2077      C2258   1.446       .  S
C2078      C2202   1.447       .  S
C2079      C3728   1.446       .  S
C2080      C4720   1.447       .  S
N2091      C2096   1.352       .  A
N2091      C2095   1.352       .  A
N2091      H2123   1.034       .  S
N2092      C2099   1.351       .  A
N2092      C2100   1.350       .  A
N2093      C2098   1.352       .  A
N2093      C2097   1.352       .  A
N2093      H2124   1.036       .  S
N2094      C2101   1.350       .  A
N2094      C2102   1.351       .  A
C2095      C2103   1.388       .  A
C2095      C2111   1.414       .  A
C2096      C2112   1.414       .  A
C2096      C2104   1.388       .  A
C2097      C2105   1.387       .  A
C2097      C2114   1.412       .  A
C2098      C2113   1.412       .  A
C2098      C2106   1.388       .  A
C2099      C2111   1.411       .  A
C2099      C2107   1.387       .  A
C2100      C2114   1.411       .  A
C2100      C2108   1.387       .  A
C2101      C2109   1.387       .  A
C2101      C2112   1.411       .  A
C2102      C2110   1.387       .  A
C2102      C2113   1.411       .  A
C2103      C2104   1.374       .  A
C2103      H2115   1.082       .  S
C2104      H2116   1.082       .  S
C2105      C2106   1.375       .  A
C2105      H2117   1.082       .  S
C2106      H2118   1.082       .  S
C2107      C2108   1.373       .  A
C2107      H2119   1.082       .  S
C2108      H2120   1.082       .  S
C2109      C2110   1.374       .  A
C2109      H2121   1.082       .  S
C2110      H2122   1.082       .  S
C2111      C2230   1.447       .  S
C2112      C2342   1.447       .  S
C2113      C2368   1.446       .  S
C2114      C3938   1.447       .  S
N2125      C2130   1.351       .  A
N2125      C2129   1.353       .  A
N2125      H2157   1.034       .  S
N2126      C2133   1.351       .  A
N2126      C2134   1.350       .  A
N2127      C2132   1.353       .  A
N2127      C2131   1.352       .  A
N2127      H2158   1.035       .  S
N2128      C2135   1.350       .  A
N2128      C2136   1.351       .  A
C2129      C2137   1.388       .  A
C2129      C2145   1.415       .  A
C2130      C2146   1.412       .  A
C2130      C2138   1.388       .  A
C2131      C2139   1.388       .  A
C2131      C2148   1.413       .  A
C2132      C2147   1.413       .  A
C2132      C2140   1.387       .  A
C2133      C2145   1.412       .  A
C2133      C2141   1.387       .  A
C2134      C2148   1.412       .  A
C2134      C2142   1.387       .  A
C2135      C2143   1.388       .  A
C2135      C2146   1.411       .  A
C2136      C2144   1.386       .  A
C2136      C2147   1.411       .  A
C2137      C2138   1.375       .  A
C2137      H2149   1.082       .  S
C2138      H2150   1.083       .  S
C2139      C2140   1.375       .  A
C2139      H2151   1.082       .  S
C2140      H2152   1.082       .  S
C2141      C2142   1.373       .  A
C2141      H2153   1.082       .  S
C2142      H2154   1.082       .  S
C2143      C2144   1.373       .  A
C2143      H2155   1.082       .  S
C2144      H2156   1.082       .  S
C2145      C2298   1.449       .  S
C2146      C2214   1.443       .  S
C2147      C4078   1.448       .  S
C2148      C3796   1.446       .  S
N2159      C2164   1.353       .  A
N2159      C2163   1.353       .  A
N2159      H2191   1.035       .  S
N2160      C2167   1.350       .  A
N2160      C2168   1.351       .  A
N2161      C2166   1.352       .  A
N2161      C2165   1.352       .  A
N2161      H2192   1.035       .  S
N2162      C2169   1.350       .  A
N2162      C2170   1.350       .  A
C2163      C2171   1.388       .  A
C2163      C2179   1.415       .  A
C2164      C2180   1.413       .  A
C2164      C2172   1.387       .  A
C2165      C2173   1.388       .  A
C2165      C2182   1.413       .  A
C2166      C2181   1.412       .  A
C2166      C2174   1.388       .  A
C2167      C2179   1.411       .  A
C2167      C2175   1.387       .  A
C2168      C2182   1.411       .  A
C2168      C2176   1.387       .  A
C2169      C2177   1.387       .  A
C2169      C2180   1.411       .  A
C2170      C2178   1.387       .  A
C2170      C2181   1.411       .  A
C2171      C2172   1.374       .  A
C2171      H2183   1.082       .  S
C2172      H2184   1.082       .  S
C2173      C2174   1.374       .  A
C2173      H2185   1.082       .  S
C2174      H2186   1.082       .  S
C2175      C2176   1.374       .  A
C2175      H2187   1.082       .  S
C2176      H2188   1.082       .  S
C2177      C2178   1.373       .  A
C2177      H2189   1.082       .  S
C2178      H2190   1.083       .  S
C2179      C2286   1.449       .  S
C2180      C2356   1.448       .  S
C2181      C3406   1.444       .  S
C2182      C3474   1.447       .  S
C2193      C2201   1.436       .  S
C2193      C2194   1.400       .  A
C2193      C2198   1.401       .  A
C2194      C2195   1.397       .  A
C2194      H2203   1.084       .  S
C2195      C2196   1.401       .  A
C2195      H2204   1.084       .  S
C2196      C2199   1.436       .  S
C2196      C2197   1.401       .  A
C2197      C2198   1.398       .  A
C2197      H2205   1.083       .  S
C2198      H2206   1.084       .  S
C2199      C2200   1.204       .  T
C2201      C2202   1.204       .  T
C2207      C2215   1.433       .  S
C2207      C2208   1.400       .  A
C2207      C2212   1.401       .  A
C2208      C2209   1.396       .  A
C2208      H2217   1.084       .  S
C2209      C2210   1.400       .  A
C2209      H2218   1.084       .  S
C2210      C2213   1.432       .  S
C2210      C2211   1.400       .  A
C2211      C2212   1.397       .  A
C2211      H2219   1.084       .  S
C2212      H2220   1.084       .  S
C2213      C2214   1.202       .  T
C2215      C2216   1.202   1_565  T
C2221      C2229   1.436       .  S
C2221      C2222   1.401       .  A
C2221      C2226   1.400       .  A
C2222      C2223   1.398       .  A
C2222      H2231   1.083       .  S
C2223      C2224   1.401       .  A
C2223      H2232   1.083       .  S
C2224      C2227   1.436       .  S
C2224      C2225   1.400       .  A
C2225      C2226   1.397       .  A
C2225      H2233   1.083       .  S
C2226      H2234   1.084       .  S
C2227      C2228   1.204       .  T
C2229      C2230   1.204       .  T
C2235      C2243   1.441       .  S
C2235      C2236   1.401       .  A
C2235      C2240   1.402       .  A
C2236      C2237   1.399       .  A
C2236      H2245   1.083       .  S
C2237      C2238   1.402       .  A
C2237      H2246   1.083       .  S
C2238      C2241   1.441       .  S
C2238      C2239   1.401       .  A
C2239      C2240   1.400       .  A
C2239      H2247   1.083       .  S
C2240      H2248   1.083       .  S
C2241      C2242   1.207       .  T
C2243      C2244   1.206       .  T
C2249      C2257   1.436       .  S
C2249      C2250   1.400       .  A
C2249      C2254   1.401       .  A
C2250      C2251   1.398       .  A
C2250      H2259   1.083       .  S
C2251      C2252   1.401       .  A
C2251      H2260   1.083       .  S
C2252      C2255   1.437       .  S
C2252      C2253   1.401       .  A
C2253      C2254   1.398       .  A
C2253      H2261   1.083       .  S
C2254      H2262   1.084       .  S
C2255      C2256   1.204       .  T
C2257      C2258   1.204       .  T
C2263      C2271   1.435       .  S
C2263      C2264   1.400       .  A
C2263      C2268   1.401       .  A
C2264      C2265   1.398       .  A
C2264      H2273   1.084       .  S
C2265      C2266   1.401       .  A
C2265      H2274   1.083       .  S
C2266      C2269   1.437       .  S
C2266      C2267   1.401       .  A
C2267      C2268   1.398       .  A
C2267      H2275   1.083       .  S
C2268      H2276   1.084       .  S
C2269      C2270   1.204       .  T
C2271      C2272   1.204       .  T
C2277      C2285   1.438       .  S
C2277      C2278   1.402       .  A
C2277      C2282   1.400       .  A
C2278      C2279   1.400       .  A
C2278      H2287   1.083       .  S
C2279      C2280   1.402       .  A
C2279      H2288   1.083       .  S
C2280      C2283   1.438       .  S
C2280      C2281   1.400       .  A
C2281      C2282   1.397       .  A
C2281      H2289   1.084       .  S
C2282      H2290   1.084       .  S
C2283      C2284   1.205   1_655  T
C2285      C2286   1.205       .  T
C2291      C2299   1.439       .  S
C2291      C2292   1.401       .  A
C2291      C2296   1.401       .  A
C2292      C2293   1.398       .  A
C2292      H2301   1.083       .  S
C2293      C2294   1.401       .  A
C2293      H2302   1.084       .  S
C2294      C2297   1.438       .  S
C2294      C2295   1.401       .  A
C2295      C2296   1.399       .  A
C2295      H2303   1.083       .  S
C2296      H2304   1.083       .  S
C2297      C2298   1.205       .  T
C2299      C2300   1.205   1_565  T
C2305      C2313   1.438       .  S
C2305      C2306   1.401       .  A
C2305      C2310   1.401       .  A
C2306      C2307   1.399       .  A
C2306      H2315   1.084       .  S
C2307      C2308   1.402       .  A
C2307      H2316   1.083       .  S
C2308      C2311   1.440       .  S
C2308      C2309   1.401       .  A
C2309      C2310   1.398       .  A
C2309      H2317   1.083       .  S
C2310      H2318   1.083       .  S
C2311      C2312   1.206       .  T
C2313      C2314   1.205       .  T
C2319      C2327   1.436       .  S
C2319      C2320   1.401       .  A
C2319      C2324   1.401       .  A
C2320      C2321   1.397       .  A
C2320      H2329   1.084       .  S
C2321      C2322   1.401       .  A
C2321      H2330   1.084       .  S
C2322      C2325   1.437       .  S
C2322      C2323   1.401       .  A
C2323      C2324   1.398       .  A
C2323      H2331   1.083       .  S
C2324      H2332   1.083       .  S
C2325      C2326   1.204       .  T
C2327      C2328   1.204       .  T
C2333      C2341   1.436       .  S
C2333      C2334   1.401       .  A
C2333      C2338   1.401       .  A
C2334      C2335   1.397       .  A
C2334      H2343   1.084       .  S
C2335      C2336   1.401       .  A
C2335      H2344   1.084       .  S
C2336      C2339   1.437       .  S
C2336      C2337   1.401       .  A
C2337      C2338   1.398       .  A
C2337      H2345   1.083       .  S
C2338      H2346   1.083       .  S
C2339      C2340   1.204   1_556  T
C2341      C2342   1.204       .  T
C2347      C2355   1.437       .  S
C2347      C2348   1.401       .  A
C2347      C2352   1.400       .  A
C2348      C2349   1.398       .  A
C2348      H2357   1.084       .  S
C2349      C2350   1.401       .  A
C2349      H2358   1.083   1_655  S
C2350      C2353   1.438   1_655  S
C2350      C2351   1.401       .  A
C2351      C2352   1.398       .  A
C2351      H2359   1.083       .  S
C2352      H2360   1.083       .  S
C2353      C2354   1.205       .  T
C2355      C2356   1.205       .  T
C2361      C2369   1.436       .  S
C2361      C2362   1.401       .  A
C2361      C2366   1.400       .  A
C2362      C2363   1.398       .  A
C2362      H2371   1.083       .  S
C2363      C2364   1.400       .  A
C2363      H2372   1.083       .  S
C2364      C2367   1.436       .  S
C2364      C2365   1.401       .  A
C2365      C2366   1.397       .  A
C2365      H2373   1.083       .  S
C2366      H2374   1.084       .  S
C2367      C2368   1.204       .  T
C2369      C2370   1.203       .  T
C2375      C2383   1.436       .  S
C2375      C2376   1.401       .  A
C2375      C2380   1.401       .  A
C2376      C2377   1.397       .  A
C2376      H2385   1.084       .  S
C2377      C2378   1.400       .  A
C2377      H2386   1.083       .  S
C2378      C2381   1.436       .  S
C2378      C2379   1.402       .  A
C2379      C2380   1.399       .  A
C2379      H2387   1.083       .  S
C2380      H2388   1.083       .  S
C2381      C2382   1.204       .  T
C2383      C2384   1.204       .  T
C2389      C2397   1.437       .  S
C2389      C2390   1.401       .  A
C2389      C2394   1.401       .  A
C2390      C2391   1.398       .  A
C2390      H2399   1.083       .  S
C2391      C2392   1.401       .  A
C2391      H2400   1.084       .  S
C2392      C2395   1.436       .  S
C2392      C2393   1.401       .  A
C2393      C2394   1.397       .  A
C2393      H2401   1.084       .  S
C2394      H2402   1.083       .  S
C2395      C2396   1.204       .  T
C2397      C2398   1.204       .  T
C2403      C2411   1.436       .  S
C2403      C2404   1.400       .  A
C2403      C2408   1.401       .  A
C2404      C2405   1.397       .  A
C2404      H2413   1.084       .  S
C2405      C2406   1.400       .  A
C2405      H2414   1.084       .  S
C2406      C2409   1.436       .  S
C2406      C2407   1.401       .  A
C2407      C2408   1.398       .  A
C2407      H2415   1.083       .  S
C2408      H2416   1.083       .  S
C2409      C2410   1.204       .  T
C2411      C2412   1.204       .  T
C2417      C2425   1.434       .  S
C2417      C2418   1.400       .  A
C2417      C2422   1.401       .  A
C2418      C2419   1.397       .  A
C2418      H2427   1.084       .  S
C2419      C2420   1.400       .  A
C2419      H2428   1.084       .  S
C2420      C2423   1.436       .  S
C2420      C2421   1.401       .  A
C2421      C2422   1.398       .  A
C2421      H2429   1.083       .  S
C2422      H2430   1.084       .  S
C2423      C2424   1.203   1_455  T
C2425      C2426   1.203       .  T
C2431      C2439   1.441       .  S
C2431      C2432   1.401       .  A
C2431      C2436   1.402       .  A
C2432      C2433   1.399       .  A
C2432      H2441   1.084       .  S
C2433      C2434   1.401       .  A
C2433      H2442   1.083       .  S
C2434      C2437   1.441       .  S
C2434      C2435   1.402       .  A
C2435      C2436   1.400       .  A
C2435      H2443   1.083       .  S
C2436      H2444   1.083       .  S
C2437      C2438   1.207       .  T
C2439      C2440   1.207       .  T
C2445      C2453   1.439       .  S
C2445      C2446   1.401       .  A
C2445      C2450   1.401       .  A
C2446      C2447   1.400       .  A
C2446      H2455   1.083       .  S
C2447      C2448   1.401       .  A
C2447      H2456   1.083       .  S
C2448      C2451   1.440       .  S
C2448      C2449   1.401       .  A
C2449      C2450   1.399       .  A
C2449      H2457   1.084       .  S
C2450      H2458   1.084       .  S
C2451      C2452   1.206       .  T
C2453      C2454   1.206       .  T
C2459      C2467   1.440       .  S
C2459      C2460   1.401       .  A
C2459      C2464   1.401       .  A
C2460      C2461   1.399       .  A
C2460      H2469   1.083       .  S
C2461      C2462   1.401       .  A
C2461      H2470   1.083       .  S
C2462      C2465   1.439       .  S
C2462      C2463   1.402       .  A
C2463      C2464   1.399       .  A
C2463      H2471   1.084       .  S
C2464      H2472   1.083       .  S
C2465      C2466   1.206       .  T
C2467      C2468   1.206   1_455  T
C2473      C2481   1.437       .  S
C2473      C2474   1.401       .  A
C2473      C2478   1.401       .  A
C2474      C2475   1.399       .  A
C2474      H2483   1.083       .  S
C2475      C2476   1.401       .  A
C2475      H2484   1.083       .  S
C2476      C2479   1.437       .  S
C2476      C2477   1.401       .  A
C2477      C2478   1.397       .  A
C2477      H2485   1.084       .  S
C2478      H2486   1.084       .  S
C2479      C2480   1.204       .  T
C2481      C2482   1.205       .  T
C2487      C2495   1.435       .  S
C2487      C2488   1.401       .  A
C2487      C2492   1.400       .  A
C2488      C2489   1.399       .  A
C2488      H2497   1.083       .  S
C2489      C2490   1.401       .  A
C2489      H2498   1.083       .  S
C2490      C2493   1.436       .  S
C2490      C2491   1.400       .  A
C2491      C2492   1.397       .  A
C2491      H2499   1.084       .  S
C2492      H2500   1.084       .  S
C2493      C2494   1.204       .  T
C2495      C2496   1.204       .  T
C2501      C2509   1.437       .  S
C2501      C2502   1.401       .  A
C2501      C2506   1.401       .  A
C2502      C2503   1.397       .  A
C2502      H2511   1.084       .  S
C2503      C2504   1.400       .  A
C2503      H2512   1.084       .  S
C2504      C2507   1.437       .  S
C2504      C2505   1.402       .  A
C2505      C2506   1.399       .  A
C2505      H2513   1.083       .  S
C2506      H2514   1.083       .  S
C2507      C2508   1.205       .  T
C2509      C2510   1.204       .  T
C2515      C2523   1.435       .  S
C2515      C2516   1.401       .  A
C2515      C2520   1.401       .  A
C2516      C2517   1.397       .  A
C2516      H2525   1.083       .  S
C2517      C2518   1.400       .  A
C2517      H2526   1.083       .  S
C2518      C2521   1.435       .  S
C2518      C2519   1.401       .  A
C2519      C2520   1.397       .  A
C2519      H2527   1.084       .  S
C2520      H2528   1.084       .  S
C2521      C2522   1.204       .  T
C2523      C2524   1.203       .  T
C2529      C2537   1.436       .  S
C2529      C2530   1.401       .  A
C2529      C2534   1.401       .  A
C2530      C2531   1.397       .  A
C2530      H2539   1.084       .  S
C2531      C2532   1.400       .  A
C2531      H2540   1.084       .  S
C2532      C2535   1.435       .  S
C2532      C2533   1.401       .  A
C2533      C2534   1.398       .  A
C2533      H2541   1.084       .  S
C2534      H2542   1.083       .  S
C2535      C2536   1.204       .  T
C2537      C2538   1.203       .  T
C2543      C2551   1.432       .  S
C2543      C2544   1.400       .  A
C2543      C2548   1.400       .  A
C2544      C2545   1.396       .  A
C2544      H2553   1.084       .  S
C2545      C2546   1.400       .  A
C2545      H2554   1.084       .  S
C2546      C2549   1.434       .  S
C2546      C2547   1.400       .  A
C2547      C2548   1.397       .  A
C2547      H2555   1.083       .  S
C2548      H2556   1.083       .  S
C2549      C2550   1.202       .  T
C2551      C2552   1.202       .  T
C2557      C2565   1.438       .  S
C2557      C2558   1.401       .  A
C2557      C2562   1.401       .  A
C2558      C2559   1.399       .  A
C2558      H2567   1.083       .  S
C2559      C2560   1.401       .  A
C2559      H2568   1.083       .  S
C2560      C2563   1.437       .  S
C2560      C2561   1.401       .  A
C2561      C2562   1.398       .  A
C2561      H2569   1.083       .  S
C2562      H2570   1.084       .  S
C2563      C2564   1.205       .  T
C2565      C2566   1.205       .  T
C2571      C2579   1.438       .  S
C2571      C2572   1.401       .  A
C2571      C2576   1.401       .  A
C2572      C2573   1.399       .  A
C2572      H2581   1.083       .  S
C2573      C2574   1.401       .  A
C2573      H2582   1.083       .  S
C2574      C2577   1.438       .  S
C2574      C2575   1.401       .  A
C2575      C2576   1.398       .  A
C2575      H2583   1.084       .  S
C2576      H2584   1.084       .  S
C2577      C2578   1.205   1_655  T
C2579      C2580   1.205       .  T
C2585      C2593   1.438       .  S
C2585      C2586   1.401       .  A
C2585      C2590   1.401       .  A
C2586      C2587   1.398       .  A
C2586      H2595   1.084       .  S
C2587      C2588   1.401       .  A
C2587      H2596   1.084       .  S
C2588      C2591   1.437       .  S
C2588      C2589   1.401       .  A
C2589      C2590   1.398       .  A
C2589      H2597   1.084       .  S
C2590      H2598   1.083       .  S
C2591      C2592   1.205       .  T
C2593      C2594   1.205       .  T
C2599      C2607   1.437       .  S
C2599      C2600   1.401       .  A
C2599      C2604   1.401       .  A
C2600      C2601   1.398       .  A
C2600      H2609   1.083       .  S
C2601      C2602   1.401       .  A
C2601      H2610   1.084       .  S
C2602      C2605   1.436       .  S
C2602      C2603   1.400       .  A
C2603      C2604   1.397       .  A
C2603      H2611   1.083       .  S
C2604      H2612   1.083       .  S
C2605      C2606   1.204       .  T
C2607      C2608   1.204       .  T
C2613      C2621   1.441       .  S
C2613      C2614   1.401       .  A
C2613      C2618   1.402       .  A
C2614      C2615   1.399       .  A
C2614      H2623   1.083       .  S
C2615      C2616   1.402       .  A
C2615      H2624   1.083       .  S
C2616      C2619   1.441       .  S
C2616      C2617   1.402       .  A
C2617      C2618   1.400       .  A
C2617      H2625   1.083       .  S
C2618      H2626   1.083       .  S
C2619      C2620   1.207       .  T
C2621      C2622   1.207       .  T
C2627      C2635   1.440       .  S
C2627      C2628   1.402       .  A
C2627      C2632   1.401       .  A
C2628      C2629   1.399       .  A
C2628      H2637   1.083       .  S
C2629      C2630   1.401       .  A
C2629      H2638   1.084       .  S
C2630      C2633   1.439       .  S
C2630      C2631   1.401       .  A
C2631      C2632   1.399       .  A
C2631      H2639   1.083       .  S
C2632      H2640   1.083       .  S
C2633      C2634   1.206       .  T
C2635      C2636   1.206       .  T
C2641      C2649   1.435       .  S
C2641      C2642   1.401       .  A
C2641      C2646   1.400       .  A
C2642      C2643   1.399       .  A
C2642      H2651   1.084       .  S
C2643      C2644   1.401       .  A
C2643      H2652   1.083       .  S
C2644      C2647   1.436       .  S
C2644      C2645   1.400       .  A
C2645      C2646   1.396       .  A
C2645      H2653   1.084       .  S
C2646      H2654   1.084       .  S
C2647      C2648   1.203       .  T
C2649      C2650   1.204       .  T
C2655      C2663   1.435       .  S
C2655      C2656   1.400       .  A
C2655      C2660   1.401       .  A
C2656      C2657   1.396       .  A
C2656      H2665   1.084       .  S
C2657      C2658   1.401       .  A
C2657      H2666   1.084       .  S
C2658      C2661   1.436       .  S
C2658      C2659   1.401       .  A
C2659      C2660   1.398       .  A
C2659      H2667   1.083       .  S
C2660      H2668   1.083       .  S
C2661      C2662   1.204       .  T
C2663      C2664   1.203       .  T
C2669      C2677   1.438       .  S
C2669      C2670   1.401       .  A
C2669      C2674   1.401       .  A
C2670      C2671   1.399       .  A
C2670      H2679   1.084       .  S
C2671      C2672   1.401       .  A
C2671      H2680   1.083       .  S
C2672      C2675   1.438       .  S
C2672      C2673   1.401       .  A
C2673      C2674   1.398       .  A
C2673      H2681   1.083       .  S
C2674      H2682   1.083       .  S
C2675      C2676   1.205       .  T
C2677      C2678   1.205       .  T
C2683      C2691   1.440       .  S
C2683      C2684   1.402       .  A
C2683      C2688   1.401       .  A
C2684      C2685   1.400       .  A
C2684      H2693   1.083       .  S
C2685      C2686   1.402       .  A
C2685      H2694   1.084       .  S
C2686      C2689   1.439       .  S
C2686      C2687   1.400       .  A
C2687      C2688   1.398       .  A
C2687      H2695   1.084       .  S
C2688      H2696   1.083       .  S
C2689      C2690   1.206       .  T
C2691      C2692   1.206       .  T
C2697      C2705   1.436       .  S
C2697      C2698   1.401       .  A
C2697      C2702   1.400       .  A
C2698      C2699   1.398       .  A
C2698      H2707   1.083       .  S
C2699      C2700   1.400       .  A
C2699      H2708   1.083       .  S
C2700      C2703   1.437       .  S
C2700      C2701   1.402       .  A
C2701      C2702   1.398       .  A
C2701      H2709   1.084       .  S
C2702      H2710   1.084       .  S
C2703      C2704   1.204       .  T
C2705      C2706   1.204       .  T
C2711      C2719   1.441       .  S
C2711      C2712   1.402       .  A
C2711      C2716   1.401       .  A
C2712      C2713   1.400       .  A
C2712      H2721   1.083       .  S
C2713      C2714   1.402       .  A
C2713      H2722   1.083       .  S
C2714      C2717   1.441       .  S
C2714      C2715   1.402       .  A
C2715      C2716   1.399       .  A
C2715      H2723   1.084       .  S
C2716      H2724   1.083       .  S
C2717      C2718   1.207       .  T
C2719      C2720   1.207   1_655  T
C2725      C2733   1.435       .  S
C2725      C2726   1.400       .  A
C2725      C2730   1.401       .  A
C2726      C2727   1.396       .  A
C2726      H2735   1.083       .  S
C2727      C2728   1.400       .  A
C2727      H2736   1.084       .  S
C2728      C2731   1.434       .  S
C2728      C2729   1.400       .  A
C2729      C2730   1.398       .  A
C2729      H2737   1.084       .  S
C2730      H2738   1.084       .  S
C2731      C2732   1.203       .  T
C2733      C2734   1.203       .  T
C2739      C2747   1.437       .  S
C2739      C2740   1.401       .  A
C2739      C2744   1.402       .  A
C2740      C2741   1.397       .  A
C2740      H2749   1.083       .  S
C2741      C2742   1.400       .  A
C2741      H2750   1.083       .  S
C2742      C2745   1.436       .  S
C2742      C2743   1.401       .  A
C2743      C2744   1.399       .  A
C2743      H2751   1.084       .  S
C2744      H2752   1.083       .  S
C2745      C2746   1.204       .  T
C2747      C2748   1.204       .  T
C2753      C2761   1.439       .  S
C2753      C2754   1.401       .  A
C2753      C2758   1.401       .  A
C2754      C2755   1.399       .  A
C2754      H2763   1.083       .  S
C2755      C2756   1.402       .  A
C2755      H2764   1.083       .  S
C2756      C2759   1.440       .  S
C2756      C2757   1.401       .  A
C2757      C2758   1.398       .  A
C2757      H2765   1.083       .  S
C2758      H2766   1.083       .  S
C2759      C2760   1.206       .  T
C2761      C2762   1.206       .  T
C2767      C2775   1.440       .  S
C2767      C2768   1.401       .  A
C2767      C2772   1.401       .  A
C2768      C2769   1.399       .  A
C2768      H2777   1.083       .  S
C2769      C2770   1.401       .  A
C2769      H2778   1.083       .  S
C2770      C2773   1.439       .  S
C2770      C2771   1.402       .  A
C2771      C2772   1.399       .  A
C2771      H2779   1.084       .  S
C2772      H2780   1.083       .  S
C2773      C2774   1.206       .  T
C2775      C2776   1.206       .  T
C2781      C2789   1.437       .  S
C2781      C2782   1.400       .  A
C2781      C2786   1.401       .  A
C2782      C2783   1.397       .  A
C2782      H2791   1.084       .  S
C2783      C2784   1.400       .  A
C2783      H2792   1.084       .  S
C2784      C2787   1.438       .  S
C2784      C2785   1.402       .  A
C2785      C2786   1.400       .  A
C2785      H2793   1.083       .  S
C2786      H2794   1.083       .  S
C2787      C2788   1.205       .  T
C2789      C2790   1.205       .  T
C2795      C2803   1.433       .  S
C2795      C2796   1.399       .  A
C2795      C2800   1.401       .  A
C2796      C2797   1.396       .  A
C2796      H2805   1.084       .  S
C2797      C2798   1.400       .  A
C2797      H2806   1.084       .  S
C2798      C2801   1.435       .  S
C2798      C2799   1.401       .  A
C2799      C2800   1.398       .  A
C2799      H2807   1.083       .  S
C2800      H2808   1.084       .  S
C2801      C2802   1.203       .  T
C2803      C2804   1.203       .  T
C2809      C2817   1.435       .  S
C2809      C2810   1.401       .  A
C2809      C2814   1.400       .  A
C2810      C2811   1.397       .  A
C2810      H2819   1.084       .  S
C2811      C2812   1.401       .  A
C2811      H2820   1.084       .  S
C2812      C2815   1.435       .  S
C2812      C2813   1.400       .  A
C2813      C2814   1.397       .  A
C2813      H2821   1.083       .  S
C2814      H2822   1.084       .  S
C2815      C2816   1.203       .  T
C2817      C2818   1.203       .  T
C2823      C2831   1.436       .  S
C2823      C2824   1.401       .  A
C2823      C2828   1.401       .  A
C2824      C2825   1.397       .  A
C2824      H2833   1.084       .  S
C2825      C2826   1.400       .  A
C2825      H2834   1.084       .  S
C2826      C2829   1.436       .  S
C2826      C2827   1.401       .  A
C2827      C2828   1.399       .  A
C2827      H2835   1.083       .  S
C2828      H2836   1.083       .  S
C2829      C2830   1.204       .  T
C2831      C2832   1.204       .  T
C2837      C2845   1.436       .  S
C2837      C2838   1.401       .  A
C2837      C2842   1.400       .  A
C2838      C2839   1.397       .  A
C2838      H2847   1.084       .  S
C2839      C2840   1.400       .  A
C2839      H2848   1.083       .  S
C2840      C2843   1.436       .  S
C2840      C2841   1.401       .  A
C2841      C2842   1.398       .  A
C2841      H2849   1.083       .  S
C2842      H2850   1.083       .  S
C2843      C2844   1.204       .  T
C2845      C2846   1.204       .  T
C2851      C2859   1.431       .  S
C2851      C2852   1.400       .  A
C2851      C2856   1.400       .  A
C2852      C2853   1.397       .  A
C2852      H2861   1.083       .  S
C2853      C2854   1.400       .  A
C2853      H2862   1.084       .  S
C2854      C2857   1.429       .  S
C2854      C2855   1.399       .  A
C2855      C2856   1.394       .  A
C2855      H2863   1.084       .  S
C2856      H2864   1.084       .  S
C2857      C2858   1.200       .  T
C2859      C2860   1.201       .  T
C2865      C2873   1.436       .  S
C2865      C2866   1.400       .  A
C2865      C2870   1.401       .  A
C2866      C2867   1.397       .  A
C2866      H2875   1.084       .  S
C2867      C2868   1.400       .  A
C2867      H2876   1.083       .  S
C2868      C2871   1.437       .  S
C2868      C2869   1.402       .  A
C2869      C2870   1.399       .  A
C2869      H2877   1.083       .  S
C2870      H2878   1.084       .  S
C2871      C2872   1.205       .  T
C2873      C2874   1.204       .  T
C2879      C2887   1.437       .  S
C2879      C2880   1.401       .  A
C2879      C2884   1.401       .  A
C2880      C2881   1.399       .  A
C2880      H2889   1.083       .  S
C2881      C2882   1.401       .  A
C2881      H2890   1.083       .  S
C2882      C2885   1.439       .  S
C2882      C2883   1.401       .  A
C2883      C2884   1.398       .  A
C2883      H2891   1.084       .  S
C2884      H2892   1.084       .  S
C2885      C2886   1.205       .  T
C2887      C2888   1.205       .  T
C2893      C2901   1.440       .  S
C2893      C2894   1.401       .  A
C2893      C2898   1.401       .  A
C2894      C2895   1.398       .  A
C2894      H2903   1.083       .  S
C2895      C2896   1.401       .  A
C2895      H2904   1.084       .  S
C2896      C2899   1.439       .  S
C2896      C2897   1.401       .  A
C2897      C2898   1.399       .  A
C2897      H2905   1.083       .  S
C2898      H2906   1.083       .  S
C2899      C2900   1.206       .  T
C2901      C2902   1.206       .  T
C2907      C2915   1.440       .  S
C2907      C2908   1.402       .  A
C2907      C2912   1.401       .  A
C2908      C2909   1.399       .  A
C2908      H2917   1.084       .  S
C2909      C2910   1.401       .  A
C2909      H2918   1.084       .  S
C2910      C2913   1.439       .  S
C2910      C2911   1.401       .  A
C2911      C2912   1.399       .  A
C2911      H2919   1.083       .  S
C2912      H2920   1.083       .  S
C2913      C2914   1.206       .  T
C2915      C2916   1.206   1_565  T
C2921      C2929   1.437       .  S
C2921      C2922   1.401       .  A
C2921      C2926   1.401       .  A
C2922      C2923   1.398       .  A
C2922      H2931   1.084       .  S
C2923      C2924   1.401       .  A
C2923      H2932   1.083       .  S
C2924      C2927   1.437       .  S
C2924      C2925   1.401       .  A
C2925      C2926   1.398       .  A
C2925      H2933   1.083       .  S
C2926      H2934   1.083       .  S
C2927      C2928   1.205       .  T
C2929      C2930   1.204       .  T
C2935      C2943   1.435       .  S
C2935      C2936   1.402       .  A
C2935      C2940   1.399       .  A
C2936      C2937   1.400       .  A
C2936      H2945   1.083       .  S
C2937      C2938   1.401       .  A
C2937      H2946   1.083       .  S
C2938      C2941   1.437       .  S
C2938      C2939   1.401       .  A
C2939      C2940   1.395       .  A
C2939      H2947   1.084       .  S
C2940      H2948   1.084       .  S
C2941      C2942   1.204       .  T
C2943      C2944   1.204       .  T
C2949      C2957   1.437       .  S
C2949      C2950   1.402       .  A
C2949      C2954   1.400       .  A
C2950      C2951   1.400       .  A
C2950      H2959   1.083       .  S
C2951      C2952   1.401       .  A
C2951      H2960   1.083       .  S
C2952      C2955   1.438       .  S
C2952      C2953   1.401       .  A
C2953      C2954   1.397       .  A
C2953      H2961   1.084       .  S
C2954      H2962   1.084       .  S
C2955      C2956   1.205       .  T
C2957      C2958   1.205       .  T
C2963      C2971   1.434       .  S
C2963      C2964   1.401       .  A
C2963      C2968   1.400       .  A
C2964      C2965   1.398       .  A
C2964      H2973   1.084       .  S
C2965      C2966   1.401       .  A
C2965      H2974   1.083       .  S
C2966      C2969   1.435       .  S
C2966      C2967   1.401       .  A
C2967      C2968   1.397       .  A
C2967      H2975   1.084       .  S
C2968      H2976   1.084       .  S
C2969      C2970   1.203       .  T
C2971      C2972   1.203       .  T
C2977      C2985   1.434       .  S
C2977      C2978   1.400       .  A
C2977      C2982   1.400       .  A
C2978      C2979   1.397       .  A
C2978      H2987   1.083       .  S
C2979      C2980   1.400       .  A
C2979      H2988   1.084       .  S
C2980      C2983   1.434       .  S
C2980      C2981   1.401       .  A
C2981      C2982   1.397       .  A
C2981      H2989   1.084       .  S
C2982      H2990   1.084       .  S
C2983      C2984   1.202       .  T
C2985      C2986   1.203       .  T
C2991      C2999   1.435       .  S
C2991      C2992   1.400       .  A
C2991      C2996   1.401       .  A
C2992      C2993   1.396       .  A
C2992      H3001   1.084       .  S
C2993      C2994   1.401       .  A
C2993      H3002   1.084       .  S
C2994      C2997   1.436       .  S
C2994      C2995   1.401       .  A
C2995      C2996   1.398       .  A
C2995      H3003   1.083       .  S
C2996      H3004   1.083       .  S
C2997      C2998   1.203       .  T
C2999      C3000   1.204       .  T
C3005      C3013   1.437       .  S
C3005      C3006   1.402       .  A
C3005      C3010   1.400       .  A
C3006      C3007   1.400       .  A
C3006      H3015   1.083       .  S
C3007      C3008   1.401       .  A
C3007      H3016   1.083       .  S
C3008      C3011   1.437       .  S
C3008      C3009   1.401       .  A
C3009      C3010   1.397       .  A
C3009      H3017   1.084       .  S
C3010      H3018   1.084       .  S
C3011      C3012   1.204       .  T
C3013      C3014   1.205       .  T
C3019      C3027   1.433       .  S
C3019      C3020   1.399       .  A
C3019      C3024   1.401       .  A
C3020      C3021   1.395       .  A
C3020      H3029   1.084       .  S
C3021      C3022   1.400       .  A
C3021      H3030   1.084       .  S
C3022      C3025   1.433       .  S
C3022      C3023   1.401       .  A
C3023      C3024   1.398       .  A
C3023      H3031   1.084       .  S
C3024      H3032   1.084       .  S
C3025      C3026   1.202       .  T
C3027      C3028   1.202       .  T
C3033      C3041   1.434       .  S
C3033      C3034   1.399       .  A
C3033      C3038   1.401       .  A
C3034      C3035   1.396       .  A
C3034      H3043   1.084       .  S
C3035      C3036   1.400       .  A
C3035      H3044   1.084       .  S
C3036      C3039   1.435       .  S
C3036      C3037   1.401       .  A
C3037      C3038   1.399       .  A
C3037      H3045   1.083       .  S
C3038      H3046   1.084       .  S
C3039      C3040   1.203       .  T
C3041      C3042   1.203       .  T
C3047      C3055   1.436       .  S
C3047      C3048   1.401       .  A
C3047      C3052   1.401       .  A
C3048      C3049   1.398       .  A
C3048      H3057   1.083       .  S
C3049      C3050   1.401       .  A
C3049      H3058   1.083       .  S
C3050      C3053   1.436       .  S
C3050      C3051   1.400       .  A
C3051      C3052   1.397       .  A
C3051      H3059   1.084       .  S
C3052      H3060   1.084       .  S
C3053      C3054   1.203       .  T
C3055      C3056   1.204       .  T
C3061      C3069   1.435       .  S
C3061      C3062   1.400       .  A
C3061      C3066   1.400       .  A
C3062      C3063   1.398       .  A
C3062      H3071   1.084       .  S
C3063      C3064   1.401       .  A
C3063      H3072   1.084       .  S
C3064      C3067   1.436       .  S
C3064      C3065   1.400       .  A
C3065      C3066   1.397       .  A
C3065      H3073   1.083       .  S
C3066      H3074   1.084       .  S
C3067      C3068   1.204       .  T
C3069      C3070   1.203       .  T
C3075      C3083   1.438       .  S
C3075      C3076   1.401       .  A
C3075      C3080   1.401       .  A
C3076      C3077   1.399       .  A
C3076      H3085   1.083       .  S
C3077      C3078   1.401       .  A
C3077      H3086   1.083       .  S
C3078      C3081   1.438       .  S
C3078      C3079   1.401       .  A
C3079      C3080   1.398       .  A
C3079      H3087   1.083       .  S
C3080      H3088   1.083       .  S
C3081      C3082   1.205       .  T
C3083      C3084   1.206       .  T
C3089      C3097   1.435       .  S
C3089      C3090   1.400       .  A
C3089      C3094   1.401       .  A
C3090      C3091   1.397       .  A
C3090      H3099   1.084       .  S
C3091      C3092   1.401       .  A
C3091      H3100   1.084       .  S
C3092      C3095   1.436       .  S
C3092      C3093   1.400       .  A
C3093      C3094   1.398       .  A
C3093      H3101   1.083       .  S
C3094      H3102   1.084       .  S
C3095      C3096   1.204       .  T
C3097      C3098   1.203       .  T
C3103      C3111   1.437       .  S
C3103      C3104   1.401       .  A
C3103      C3108   1.401       .  A
C3104      C3105   1.397       .  A
C3104      H3113   1.084       .  S
C3105      C3106   1.401       .  A
C3105      H3114   1.083       .  S
C3106      C3109   1.438       .  S
C3106      C3107   1.402       .  A
C3107      C3108   1.399       .  A
C3107      H3115   1.083       .  S
C3108      H3116   1.083       .  S
C3109      C3110   1.205       .  T
C3111      C3112   1.204       .  T
C3117      C3125   1.438       .  S
C3117      C3118   1.401       .  A
C3117      C3122   1.401       .  A
C3118      C3119   1.397       .  A
C3118      H3127   1.084       .  S
C3119      C3120   1.400       .  A
C3119      H3128   1.084       .  S
C3120      C3123   1.438       .  S
C3120      C3121   1.401       .  A
C3121      C3122   1.399       .  A
C3121      H3129   1.083       .  S
C3122      H3130   1.083       .  S
C3123      C3124   1.205       .  T
C3125      C3126   1.205       .  T
C3131      C3139   1.439       .  S
C3131      C3132   1.401       .  A
C3131      C3136   1.401       .  A
C3132      C3133   1.399       .  A
C3132      H3141   1.083       .  S
C3133      C3134   1.401       .  A
C3133      H3142   1.083       .  S
C3134      C3137   1.439       .  S
C3134      C3135   1.401       .  A
C3135      C3136   1.399       .  A
C3135      H3143   1.083       .  S
C3136      H3144   1.084       .  S
C3137      C3138   1.205   1_556  T
C3139      C3140   1.206       .  T
C3145      C3153   1.434       .  S
C3145      C3146   1.400       .  A
C3145      C3150   1.400       .  A
C3146      C3147   1.396       .  A
C3146      H3155   1.084       .  S
C3147      C3148   1.400       .  A
C3147      H3156   1.084       .  S
C3148      C3151   1.435       .  S
C3148      C3149   1.401       .  A
C3149      C3150   1.398       .  A
C3149      H3157   1.083       .  S
C3150      H3158   1.083       .  S
C3151      C3152   1.203       .  T
C3153      C3154   1.203       .  T
C3159      C3167   1.437       .  S
C3159      C3160   1.400       .  A
C3159      C3164   1.401       .  A
C3160      C3161   1.398       .  A
C3160      H3169   1.084       .  S
C3161      C3162   1.401       .  A
C3161      H3170   1.083       .  S
C3162      C3165   1.438       .  S
C3162      C3163   1.401       .  A
C3163      C3164   1.399       .  A
C3163      H3171   1.083       .  S
C3164      H3172   1.084       .  S
C3165      C3166   1.205       .  T
C3167      C3168   1.205       .  T
C3173      C3181   1.435       .  S
C3173      C3174   1.401       .  A
C3173      C3178   1.400       .  A
C3174      C3175   1.398       .  A
C3174      H3183   1.084       .  S
C3175      C3176   1.401       .  A
C3175      H3184   1.083       .  S
C3176      C3179   1.436       .  S
C3176      C3177   1.401       .  A
C3177      C3178   1.397       .  A
C3177      H3185   1.084       .  S
C3178      H3186   1.084       .  S
C3179      C3180   1.204       .  T
C3181      C3182   1.204       .  T
C3187      C3195   1.437       .  S
C3187      C3188   1.402       .  A
C3187      C3192   1.400       .  A
C3188      C3189   1.399       .  A
C3188      H3197   1.083       .  S
C3189      C3190   1.401       .  A
C3189      H3198   1.083       .  S
C3190      C3193   1.437       .  S
C3190      C3191   1.400       .  A
C3191      C3192   1.397       .  A
C3191      H3199   1.084       .  S
C3192      H3200   1.083       .  S
C3193      C3194   1.204       .  T
C3195      C3196   1.205       .  T
C3201      C3209   1.434       .  S
C3201      C3202   1.401       .  A
C3201      C3206   1.400       .  A
C3202      C3203   1.395       .  A
C3202      H3211   1.084       .  S
C3203      C3204   1.399       .  A
C3203      H3212   1.084       .  S
C3204      C3207   1.433       .  S
C3204      C3205   1.402       .  A
C3205      C3206   1.399       .  A
C3205      H3213   1.083       .  S
C3206      H3214   1.083       .  S
C3207      C3208   1.202       .  T
C3209      C3210   1.203       .  T
C3215      C3223   1.436       .  S
C3215      C3216   1.401       .  A
C3215      C3220   1.400       .  A
C3216      C3217   1.397       .  A
C3216      H3225   1.084       .  S
C3217      C3218   1.400       .  A
C3217      H3226   1.084       .  S
C3218      C3221   1.435       .  S
C3218      C3219   1.401       .  A
C3219      C3220   1.398       .  A
C3219      H3227   1.083       .  S
C3220      H3228   1.083       .  S
C3221      C3222   1.203       .  T
C3223      C3224   1.203       .  T
C3229      C3237   1.437       .  S
C3229      C3230   1.401       .  A
C3229      C3234   1.401       .  A
C3230      C3231   1.398       .  A
C3230      H3239   1.083       .  S
C3231      C3232   1.400       .  A
C3231      H3240   1.084       .  S
C3232      C3235   1.437       .  S
C3232      C3233   1.401       .  A
C3233      C3234   1.399       .  A
C3233      H3241   1.083       .  S
C3234      H3242   1.083       .  S
C3235      C3236   1.205       .  T
C3237      C3238   1.204       .  T
C3243      C3251   1.435       .  S
C3243      C3244   1.401       .  A
C3243      C3248   1.400       .  A
C3244      C3245   1.398       .  A
C3244      H3253   1.083       .  S
C3245      C3246   1.400       .  A
C3245      H3254   1.083       .  S
C3246      C3249   1.435       .  S
C3246      C3247   1.400       .  A
C3247      C3248   1.397       .  A
C3247      H3255   1.084       .  S
C3248      H3256   1.084       .  S
C3249      C3250   1.203       .  T
C3251      C3252   1.203       .  T
C3257      C3265   1.434       .  S
C3257      C3258   1.401       .  A
C3257      C3262   1.400       .  A
C3258      C3259   1.398       .  A
C3258      H3267   1.083       .  S
C3259      C3260   1.401       .  A
C3259      H3268   1.083       .  S
C3260      C3263   1.435       .  S
C3260      C3261   1.400       .  A
C3261      C3262   1.396       .  A
C3261      H3269   1.084       .  S
C3262      H3270   1.084       .  S
C3263      C3264   1.203       .  T
C3265      C3266   1.203       .  T
C3271      C3279   1.439       .  S
C3271      C3272   1.401       .  A
C3271      C3276   1.401       .  A
C3272      C3273   1.398       .  A
C3272      H3281   1.084       .  S
C3273      C3274   1.401       .  A
C3273      H3282   1.083       .  S
C3274      C3277   1.441       .  S
C3274      C3275   1.402       .  A
C3275      C3276   1.400       .  A
C3275      H3283   1.083       .  S
C3276      H3284   1.083       .  S
C3277      C3278   1.206       .  T
C3279      C3280   1.206       .  T
C3285      C3293   1.441       .  S
C3285      C3286   1.402       .  A
C3285      C3290   1.402       .  A
C3286      C3287   1.399       .  A
C3286      H3295   1.083       .  S
C3287      C3288   1.401       .  A
C3287      H3296   1.084       .  S
C3288      C3291   1.441       .  S
C3288      C3289   1.402       .  A
C3289      C3290   1.400       .  A
C3289      H3297   1.083       .  S
C3290      H3298   1.083       .  S
C3291      C3292   1.207       .  T
C3293      C3294   1.207       .  T
C3299      C3307   1.438       .  S
C3299      C3300   1.401       .  A
C3299      C3304   1.401       .  A
C3300      C3301   1.398       .  A
C3300      H3309   1.083       .  S
C3301      C3302   1.400       .  A
C3301      H3310   1.084       .  S
C3302      C3305   1.437       .  S
C3302      C3303   1.401       .  A
C3303      C3304   1.399       .  A
C3303      H3311   1.084       .  S
C3304      H3312   1.083       .  S
C3305      C3306   1.205       .  T
C3307      C3308   1.205       .  T
C3313      C3321   1.434       .  S
C3313      C3314   1.401       .  A
C3313      C3318   1.400       .  A
C3314      C3315   1.397       .  A
C3314      H3323   1.084       .  S
C3315      C3316   1.401       .  A
C3315      H3324   1.084       .  S
C3316      C3319   1.435       .  S
C3316      C3317   1.400       .  A
C3317      C3318   1.397       .  A
C3317      H3325   1.084       .  S
C3318      H3326   1.083       .  S
C3319      C3320   1.203       .  T
C3321      C3322   1.203       .  T
C3327      C3335   1.438       .  S
C3327      C3328   1.401       .  A
C3327      C3332   1.401       .  A
C3328      C3329   1.398       .  A
C3328      H3337   1.084       .  S
C3329      C3330   1.401       .  A
C3329      H3338   1.084       .  S
C3330      C3333   1.437       .  S
C3330      C3331   1.401       .  A
C3331      C3332   1.399       .  A
C3331      H3339   1.083       .  S
C3332      H3340   1.083       .  S
C3333      C3334   1.204   1_554  T
C3335      C3336   1.205       .  T
C3341      C3349   1.433       .  S
C3341      C3342   1.400       .  A
C3341      C3346   1.400       .  A
C3342      C3343   1.396       .  A
C3342      H3351   1.083       .  S
C3343      C3344   1.400       .  A
C3343      H3352   1.084       .  S
C3344      C3347   1.432       .  S
C3344      C3345   1.400       .  A
C3345      C3346   1.397       .  A
C3345      H3353   1.084       .  S
C3346      H3354   1.084       .  S
C3347      C3348   1.201       .  T
C3349      C3350   1.202       .  T
C3355      C3363   1.434       .  S
C3355      C3356   1.401       .  A
C3355      C3360   1.400       .  A
C3356      C3357   1.398       .  A
C3356      H3365   1.084       .  S
C3357      C3358   1.401       .  A
C3357      H3366   1.083       .  S
C3358      C3361   1.436       .  S
C3358      C3359   1.401       .  A
C3359      C3360   1.397       .  A
C3359      H3367   1.084       .  S
C3360      H3368   1.084       .  S
C3361      C3362   1.203       .  T
C3363      C3364   1.203       .  T
C3369      C3377   1.437       .  S
C3369      C3370   1.401       .  A
C3369      C3374   1.401       .  A
C3370      C3371   1.397       .  A
C3370      H3379   1.084       .  S
C3371      C3372   1.400       .  A
C3371      H3380   1.084       .  S
C3372      C3375   1.437       .  S
C3372      C3373   1.402       .  A
C3373      C3374   1.400       .  A
C3373      H3381   1.083       .  S
C3374      H3382   1.083       .  S
C3375      C3376   1.204       .  T
C3377      C3378   1.205       .  T
C3383      C3391   1.435       .  S
C3383      C3384   1.401       .  A
C3383      C3388   1.400       .  A
C3384      C3385   1.397       .  A
C3384      H3393   1.084       .  S
C3385      C3386   1.400       .  A
C3385      H3394   1.084       .  S
C3386      C3389   1.434       .  S
C3386      C3387   1.400       .  A
C3387      C3388   1.397       .  A
C3387      H3395   1.084       .  S
C3388      H3396   1.083       .  S
C3389      C3390   1.203       .  T
C3391      C3392   1.203       .  T
C3397      C3405   1.433       .  S
C3397      C3398   1.399       .  A
C3397      C3402   1.401       .  A
C3398      C3399   1.396       .  A
C3398      H3407   1.084       .  S
C3399      C3400   1.400       .  A
C3399      H3408   1.084       .  S
C3400      C3403   1.432       .  S
C3400      C3401   1.400       .  A
C3401      C3402   1.397       .  A
C3401      H3409   1.084       .  S
C3402      H3410   1.084       .  S
C3403      C3404   1.201       .  T
C3405      C3406   1.202       .  T
C3411      C3419   1.438       .  S
C3411      C3412   1.401       .  A
C3411      C3416   1.401       .  A
C3412      C3413   1.398       .  A
C3412      H3421   1.083       .  S
C3413      C3414   1.401       .  A
C3413      H3422   1.083       .  S
C3414      C3417   1.438       .  S
C3414      C3415   1.401       .  A
C3415      C3416   1.399       .  A
C3415      H3423   1.083       .  S
C3416      H3424   1.083       .  S
C3417      C3418   1.205       .  T
C3419      C3420   1.205       .  T
C3425      C3433   1.436       .  S
C3425      C3426   1.402       .  A
C3425      C3430   1.399       .  A
C3426      C3427   1.400       .  A
C3426      H3435   1.083       .  S
C3427      C3428   1.401       .  A
C3427      H3436   1.083       .  S
C3428      C3431   1.436       .  S
C3428      C3429   1.400       .  A
C3429      C3430   1.395       .  A
C3429      H3437   1.084       .  S
C3430      H3438   1.084       .  S
C3431      C3432   1.204       .  T
C3433      C3434   1.204       .  T
C3439      C3447   1.437       .  S
C3439      C3440   1.400       .  A
C3439      C3444   1.401       .  A
C3440      C3441   1.398       .  A
C3440      H3449   1.083       .  S
C3441      C3442   1.402       .  A
C3441      H3450   1.084       .  S
C3442      C3445   1.438       .  S
C3442      C3443   1.400       .  A
C3443      C3444   1.398       .  A
C3443      H3451   1.083       .  S
C3444      H3452   1.084       .  S
C3445      C3446   1.204       .  T
C3447      C3448   1.205       .  T
C3453      C3461   1.437       .  S
C3453      C3454   1.401       .  A
C3453      C3458   1.400       .  A
C3454      C3455   1.400       .  A
C3454      H3463   1.083       .  S
C3455      C3456   1.402       .  A
C3455      H3464   1.083       .  S
C3456      C3459   1.438       .  S
C3456      C3457   1.400       .  A
C3457      C3458   1.397       .  A
C3457      H3465   1.083       .  S
C3458      H3466   1.084       .  S
C3459      C3460   1.205       .  T
C3461      C3462   1.205       .  T
C3467      C3475   1.437       .  S
C3467      C3468   1.401       .  A
C3467      C3472   1.400       .  A
C3468      C3469   1.398       .  A
C3468      H3477   1.083       .  S
C3469      C3470   1.400       .  A
C3469      H3478   1.083       .  S
C3470      C3473   1.436       .  S
C3470      C3471   1.401       .  A
C3471      C3472   1.397       .  A
C3471      H3479   1.084       .  S
C3472      H3480   1.083       .  S
C3473      C3474   1.204       .  T
C3475      C3476   1.204       .  T
C3481      C3489   1.433       .  S
C3481      C3482   1.401       .  A
C3481      C3486   1.400       .  A
C3482      C3483   1.395       .  A
C3482      H3491   1.084       .  S
C3483      C3484   1.399       .  A
C3483      H3492   1.084       .  S
C3484      C3487   1.431       .  S
C3484      C3485   1.401       .  A
C3485      C3486   1.398       .  A
C3485      H3493   1.084       .  S
C3486      H3494   1.083       .  S
C3487      C3488   1.201       .  T
C3489      C3490   1.202       .  T
C3495      C3503   1.437       .  S
C3495      C3496   1.401       .  A
C3495      C3500   1.401       .  A
C3496      C3497   1.399       .  A
C3496      H3505   1.083       .  S
C3497      C3498   1.402       .  A
C3497      H3506   1.083       .  S
C3498      C3501   1.437       .  S
C3498      C3499   1.400       .  A
C3499      C3500   1.397       .  A
C3499      H3507   1.084       .  S
C3500      H3508   1.084       .  S
C3501      C3502   1.205       .  T
C3503      C3504   1.204       .  T
C3509      C3517   1.433       .  S
C3509      C3510   1.399       .  A
C3509      C3514   1.401       .  A
C3510      C3511   1.394       .  A
C3510      H3519   1.084       .  S
C3511      C3512   1.400       .  A
C3511      H3520   1.084       .  S
C3512      C3515   1.433       .  S
C3512      C3513   1.401       .  A
C3513      C3514   1.399       .  A
C3513      H3521   1.083       .  S
C3514      H3522   1.083       .  S
C3515      C3516   1.202       .  T
C3517      C3518   1.202       .  T
C3523      C3531   1.437       .  S
C3523      C3524   1.400       .  A
C3523      C3528   1.401       .  A
C3524      C3525   1.397       .  A
C3524      H3533   1.084       .  S
C3525      C3526   1.401       .  A
C3525      H3534   1.084       .  S
C3526      C3529   1.438       .  S
C3526      C3527   1.402       .  A
C3527      C3528   1.399       .  A
C3527      H3535   1.083       .  S
C3528      H3536   1.083       .  S
C3529      C3530   1.205       .  T
C3531      C3532   1.205       .  T
C3537      C3545   1.436       .  S
C3537      C3538   1.401       .  A
C3537      C3542   1.400       .  A
C3538      C3539   1.398       .  A
C3538      H3547   1.083       .  S
C3539      C3540   1.401       .  A
C3539      H3548   1.083       .  S
C3540      C3543   1.437       .  S
C3540      C3541   1.401       .  A
C3541      C3542   1.397       .  A
C3541      H3549   1.084       .  S
C3542      H3550   1.084       .  S
C3543      C3544   1.204       .  T
C3545      C3546   1.204       .  T
C3551      C3559   1.438       .  S
C3551      C3552   1.401       .  A
C3551      C3556   1.401       .  A
C3552      C3553   1.399       .  A
C3552      H3561   1.083       .  S
C3553      C3554   1.402       .  A
C3553      H3562   1.083       .  S
C3554      C3557   1.439       .  S
C3554      C3555   1.401       .  A
C3555      C3556   1.399       .  A
C3555      H3563   1.083       .  S
C3556      H3564   1.083       .  S
C3557      C3558   1.206       .  T
C3559      C3560   1.205       .  T
C3565      C3573   1.440       .  S
C3565      C3566   1.403       .  A
C3565      C3570   1.400       .  A
C3566      C3567   1.401       .  A
C3566      H3575   1.084       .  S
C3567      C3568   1.402       .  A
C3567      H3576   1.083       .  S
C3568      C3571   1.440       .  S
C3568      C3569   1.401       .  A
C3569      C3570   1.398       .  A
C3569      H3577   1.083       .  S
C3570      H3578   1.083       .  S
C3571      C3572   1.206       .  T
C3573      C3574   1.207       .  T
C3579      C3587   1.443       .  S
C3579      C3580   1.402       .  A
C3579      C3584   1.402       .  A
C3580      C3581   1.399       .  A
C3580      H3589   1.083       .  S
C3581      C3582   1.401       .  A
C3581      H3590   1.084       .  S
C3582      C3585   1.442       .  S
C3582      C3583   1.402       .  A
C3583      C3584   1.401       .  A
C3583      H3591   1.083       .  S
C3584      H3592   1.083       .  S
C3585      C3586   1.208       .  T
C3587      C3588   1.208       .  T
C3593      C3601   1.436       .  S
C3593      C3594   1.401       .  A
C3593      C3598   1.400       .  A
C3594      C3595   1.398       .  A
C3594      H3603   1.084       .  S
C3595      C3596   1.400       .  A
C3595      H3604   1.083       .  S
C3596      C3599   1.436       .  S
C3596      C3597   1.401       .  A
C3597      C3598   1.398       .  A
C3597      H3605   1.084       .  S
C3598      H3606   1.083       .  S
C3599      C3600   1.204       .  T
C3601      C3602   1.204       .  T
C3607      C3615   1.437       .  S
C3607      C3608   1.401       .  A
C3607      C3612   1.401       .  A
C3608      C3609   1.397       .  A
C3608      H3617   1.084       .  S
C3609      C3610   1.400       .  A
C3609      H3618   1.084       .  S
C3610      C3613   1.437       .  S
C3610      C3611   1.401       .  A
C3611      C3612   1.399       .  A
C3611      H3619   1.084       .  S
C3612      H3620   1.083       .  S
C3613      C3614   1.205       .  T
C3615      C3616   1.204       .  T
C3621      C3629   1.438       .  S
C3621      C3622   1.400       .  A
C3621      C3626   1.401       .  A
C3622      C3623   1.398       .  A
C3622      H3631   1.084       .  S
C3623      C3624   1.401       .  A
C3623      H3632   1.083       .  S
C3624      C3627   1.439       .  S
C3624      C3625   1.402       .  A
C3625      C3626   1.400       .  A
C3625      H3633   1.083       .  S
C3626      H3634   1.083       .  S
C3627      C3628   1.205       .  T
C3629      C3630   1.205       .  T
C3635      C3643   1.436       .  S
C3635      C3636   1.401       .  A
C3635      C3640   1.400       .  A
C3636      C3637   1.398       .  A
C3636      H3645   1.084       .  S
C3637      C3638   1.401       .  A
C3637      H3646   1.083       .  S
C3638      C3641   1.437       .  S
C3638      C3639   1.400       .  A
C3639      C3640   1.397       .  A
C3639      H3647   1.083       .  S
C3640      H3648   1.083       .  S
C3641      C3642   1.204       .  T
C3643      C3644   1.204       .  T
C3649      C3657   1.437       .  S
C3649      C3650   1.401       .  A
C3649      C3654   1.401       .  A
C3650      C3651   1.398       .  A
C3650      H3659   1.084       .  S
C3651      C3652   1.401       .  A
C3651      H3660   1.083       .  S
C3652      C3655   1.438       .  S
C3652      C3653   1.401       .  A
C3653      C3654   1.398       .  A
C3653      H3661   1.083       .  S
C3654      H3662   1.084       .  S
C3655      C3656   1.205   1_545  T
C3657      C3658   1.205       .  T
C3663      C3671   1.438       .  S
C3663      C3664   1.401       .  A
C3663      C3668   1.401       .  A
C3664      C3665   1.400       .  A
C3664      H3673   1.083       .  S
C3665      C3666   1.402       .  A
C3665      H3674   1.083       .  S
C3666      C3669   1.438       .  S
C3666      C3667   1.400       .  A
C3667      C3668   1.397       .  A
C3667      H3675   1.084       .  S
C3668      H3676   1.084       .  S
C3669      C3670   1.205       .  T
C3671      C3672   1.205       .  T
C3677      C3685   1.435       .  S
C3677      C3678   1.401       .  A
C3677      C3682   1.400       .  A
C3678      C3679   1.398       .  A
C3678      H3687   1.084       .  S
C3679      C3680   1.401       .  A
C3679      H3688   1.084       .  S
C3680      C3683   1.435       .  S
C3680      C3681   1.400       .  A
C3681      C3682   1.397       .  A
C3681      H3689   1.083       .  S
C3682      H3690   1.084       .  S
C3683      C3684   1.203       .  T
C3685      C3686   1.204       .  T
C3691      C3699   1.434       .  S
C3691      C3692   1.400       .  A
C3691      C3696   1.401       .  A
C3692      C3693   1.397       .  A
C3692      H3701   1.084       .  S
C3693      C3694   1.400       .  A
C3693      H3702   1.083       .  S
C3694      C3697   1.435       .  S
C3694      C3695   1.401       .  A
C3695      C3696   1.398       .  A
C3695      H3703   1.084       .  S
C3696      H3704   1.084       .  S
C3697      C3698   1.203       .  T
C3699      C3700   1.203       .  T
C3705      C3713   1.436       .  S
C3705      C3706   1.401       .  A
C3705      C3710   1.401       .  A
C3706      C3707   1.397       .  A
C3706      H3715   1.084       .  S
C3707      C3708   1.400       .  A
C3707      H3716   1.084       .  S
C3708      C3711   1.437       .  S
C3708      C3709   1.401       .  A
C3709      C3710   1.398       .  A
C3709      H3717   1.083       .  S
C3710      H3718   1.083       .  S
C3711      C3712   1.204       .  T
C3713      C3714   1.204       .  T
C3719      C3727   1.435       .  S
C3719      C3720   1.400       .  A
C3719      C3724   1.401       .  A
C3720      C3721   1.397       .  A
C3720      H3729   1.084       .  S
C3721      C3722   1.401       .  A
C3721      H3730   1.084       .  S
C3722      C3725   1.436       .  S
C3722      C3723   1.401       .  A
C3723      C3724   1.398       .  A
C3723      H3731   1.083       .  S
C3724      H3732   1.084       .  S
C3725      C3726   1.204       .  T
C3727      C3728   1.204       .  T
C3733      C3741   1.434       .  S
C3733      C3734   1.401       .  A
C3733      C3738   1.400       .  A
C3734      C3735   1.398       .  A
C3734      H3743   1.083       .  S
C3735      C3736   1.401       .  A
C3735      H3744   1.083       .  S
C3736      C3739   1.435       .  S
C3736      C3737   1.400       .  A
C3737      C3738   1.396       .  A
C3737      H3745   1.084       .  S
C3738      H3746   1.084       .  S
C3739      C3740   1.203       .  T
C3741      C3742   1.203       .  T
C3747      C3755   1.438       .  S
C3747      C3748   1.402       .  A
C3747      C3752   1.400       .  A
C3748      C3749   1.399       .  A
C3748      H3757   1.083       .  S
C3749      C3750   1.401       .  A
C3749      H3758   1.083       .  S
C3750      C3753   1.439       .  S
C3750      C3751   1.401       .  A
C3751      C3752   1.398       .  A
C3751      H3759   1.084       .  S
C3752      H3760   1.083       .  S
C3753      C3754   1.205       .  T
C3755      C3756   1.205       .  T
C3761      C3769   1.435       .  S
C3761      C3762   1.401       .  A
C3761      C3766   1.401       .  A
C3762      C3763   1.397       .  A
C3762      H3771   1.084       .  S
C3763      C3764   1.400       .  A
C3763      H3772   1.084       .  S
C3764      C3767   1.435       .  S
C3764      C3765   1.401       .  A
C3765      C3766   1.398       .  A
C3765      H3773   1.083       .  S
C3766      H3774   1.084       .  S
C3767      C3768   1.203       .  T
C3769      C3770   1.203       .  T
C3775      C3783   1.432       .  S
C3775      C3776   1.400       .  A
C3775      C3780   1.400       .  A
C3776      C3777   1.397       .  A
C3776      H3785   1.083       .  S
C3777      C3778   1.401       .  A
C3777      H3786   1.083       .  S
C3778      C3781   1.433       .  S
C3778      C3779   1.400       .  A
C3779      C3780   1.395       .  A
C3779      H3787   1.084       .  S
C3780      H3788   1.084       .  S
C3781      C3782   1.202       .  T
C3783      C3784   1.202       .  T
C3789      C3797   1.436       .  S
C3789      C3790   1.402       .  A
C3789      C3794   1.400       .  A
C3790      C3791   1.397       .  A
C3790      H3799   1.084       .  S
C3791      C3792   1.400       .  A
C3791      H3800   1.084       .  S
C3792      C3795   1.435       .  S
C3792      C3793   1.401       .  A
C3793      C3794   1.398       .  A
C3793      H3801   1.084       .  S
C3794      H3802   1.083       .  S
C3795      C3796   1.203       .  T
C3797      C3798   1.204       .  T
C3803      C3811   1.433       .  S
C3803      C3804   1.401       .  A
C3803      C3808   1.399       .  A
C3804      C3805   1.397       .  A
C3804      H3813   1.084       .  S
C3805      C3806   1.400       .  A
C3805      H3814   1.083       .  S
C3806      C3809   1.433       .  S
C3806      C3807   1.401       .  A
C3807      C3808   1.396       .  A
C3807      H3815   1.084       .  S
C3808      H3816   1.084       .  S
C3809      C3810   1.202       .  T
C3811      C3812   1.202       .  T
C3817      C3825   1.436       .  S
C3817      C3818   1.401       .  A
C3817      C3822   1.401       .  A
C3818      C3819   1.399       .  A
C3818      H3827   1.083       .  S
C3819      C3820   1.401       .  A
C3819      H3828   1.083       .  S
C3820      C3823   1.435       .  S
C3820      C3821   1.400       .  A
C3821      C3822   1.396       .  A
C3821      H3829   1.084       .  S
C3822      H3830   1.084       .  S
C3823      C3824   1.204       .  T
C3825      C3826   1.203       .  T
C3831      C3839   1.435       .  S
C3831      C3832   1.400       .  A
C3831      C3836   1.401       .  A
C3832      C3833   1.399       .  A
C3832      H3841   1.083       .  S
C3833      C3834   1.402       .  A
C3833      H3842   1.084       .  S
C3834      C3837   1.435       .  S
C3834      C3835   1.399       .  A
C3835      C3836   1.396       .  A
C3835      H3843   1.084       .  S
C3836      H3844   1.084       .  S
C3837      C3838   1.203       .  T
C3839      C3840   1.203       .  T
C3845      C3853   1.436       .  S
C3845      C3846   1.401       .  A
C3845      C3850   1.400       .  A
C3846      C3847   1.399       .  A
C3846      H3855   1.083       .  S
C3847      C3848   1.401       .  A
C3847      H3856   1.083       .  S
C3848      C3851   1.437       .  S
C3848      C3849   1.401       .  A
C3849      C3850   1.397       .  A
C3849      H3857   1.084       .  S
C3850      H3858   1.084       .  S
C3851      C3852   1.204       .  T
C3853      C3854   1.204       .  T
C3859      C3867   1.436       .  S
C3859      C3860   1.401       .  A
C3859      C3864   1.401       .  A
C3860      C3861   1.399       .  A
C3860      H3869   1.083       .  S
C3861      C3862   1.402       .  A
C3861      H3870   1.083       .  S
C3862      C3865   1.436       .  S
C3862      C3863   1.399       .  A
C3863      C3864   1.397       .  A
C3863      H3871   1.084       .  S
C3864      H3872   1.084       .  S
C3865      C3866   1.204       .  T
C3867      C3868   1.203       .  T
C3873      C3881   1.436       .  S
C3873      C3874   1.401       .  A
C3873      C3878   1.401       .  A
C3874      C3875   1.399       .  A
C3874      H3883   1.083       .  S
C3875      C3876   1.401       .  A
C3875      H3884   1.084       .  S
C3876      C3879   1.435       .  S
C3876      C3877   1.399       .  A
C3877      C3878   1.396       .  A
C3877      H3885   1.084       .  S
C3878      H3886   1.084       .  S
C3879      C3880   1.203       .  T
C3881      C3882   1.204       .  T
C3887      C3895   1.436       .  S
C3887      C3888   1.401       .  A
C3887      C3892   1.400       .  A
C3888      C3889   1.398       .  A
C3888      H3897   1.084       .  S
C3889      C3890   1.401       .  A
C3889      H3898   1.084       .  S
C3890      C3893   1.436       .  S
C3890      C3891   1.400       .  A
C3891      C3892   1.397       .  A
C3891      H3899   1.083       .  S
C3892      H3900   1.083       .  S
C3893      C3894   1.204       .  T
C3895      C3896   1.204       .  T
C3901      C3909   1.431       .  S
C3901      C3902   1.400       .  A
C3901      C3906   1.399       .  A
C3902      C3903   1.397       .  A
C3902      H3911   1.084       .  S
C3903      C3904   1.400       .  A
C3903      H3912   1.084       .  S
C3904      C3907   1.432       .  S
C3904      C3905   1.400       .  A
C3905      C3906   1.395       .  A
C3905      H3913   1.084       .  S
C3906      H3914   1.084       .  S
C3907      C3908   1.201       .  T
C3909      C3910   1.201       .  T
C3915      C3923   1.438       .  S
C3915      C3916   1.402       .  A
C3915      C3920   1.400       .  A
C3916      C3917   1.400       .  A
C3916      H3925   1.084       .  S
C3917      C3918   1.401       .  A
C3917      H3926   1.083       .  S
C3918      C3921   1.439       .  S
C3918      C3919   1.401       .  A
C3919      C3920   1.397       .  A
C3919      H3927   1.084       .  S
C3920      H3928   1.084       .  S
C3921      C3922   1.206       .  T
C3923      C3924   1.205       .  T
C3929      C3937   1.436       .  S
C3929      C3930   1.401       .  A
C3929      C3934   1.400       .  A
C3930      C3931   1.398       .  A
C3930      H3939   1.084       .  S
C3931      C3932   1.401       .  A
C3931      H3940   1.083       .  S
C3932      C3935   1.437       .  S
C3932      C3933   1.401       .  A
C3933      C3934   1.397       .  A
C3933      H3941   1.084       .  S
C3934      H3942   1.083       .  S
C3935      C3936   1.204       .  T
C3937      C3938   1.204       .  T
C3943      C3951   1.432       .  S
C3943      C3944   1.399       .  A
C3943      C3948   1.401       .  A
C3944      C3945   1.396       .  A
C3944      H3953   1.084       .  S
C3945      C3946   1.401       .  A
C3945      H3954   1.084       .  S
C3946      C3949   1.433       .  S
C3946      C3947   1.400       .  A
C3947      C3948   1.397       .  A
C3947      H3955   1.083       .  S
C3948      H3956   1.084       .  S
C3949      C3950   1.202       .  T
C3951      C3952   1.202       .  T
C3957      C3965   1.436       .  S
C3957      C3958   1.401       .  A
C3957      C3962   1.401       .  A
C3958      C3959   1.398       .  A
C3958      H3967   1.083       .  S
C3959      C3960   1.400       .  A
C3959      H3968   1.083       .  S
C3960      C3963   1.435       .  S
C3960      C3961   1.400       .  A
C3961      C3962   1.397       .  A
C3961      H3969   1.084       .  S
C3962      H3970   1.083       .  S
C3963      C3964   1.204       .  T
C3965      C3966   1.204       .  T
C3971      C3979   1.434       .  S
C3971      C3972   1.402       .  A
C3971      C3976   1.399       .  A
C3972      C3973   1.399       .  A
C3972      H3981   1.084       .  S
C3973      C3974   1.400       .  A
C3973      H3982   1.083       .  S
C3974      C3977   1.435       .  S
C3974      C3975   1.401       .  A
C3975      C3976   1.395       .  A
C3975      H3983   1.084       .  S
C3976      H3984   1.084       .  S
C3977      C3978   1.203       .  T
C3979      C3980   1.203       .  T
C3985      C3993   1.431       .  S
C3985      C3986   1.399       .  A
C3985      C3990   1.400       .  A
C3986      C3987   1.396       .  A
C3986      H3995   1.083       .  S
C3987      C3988   1.400       .  A
C3987      H3996   1.083       .  S
C3988      C3991   1.432       .  S
C3988      C3989   1.400       .  A
C3989      C3990   1.396       .  A
C3989      H3997   1.084       .  S
C3990      H3998   1.084       .  S
C3991      C3992   1.201       .  T
C3993      C3994   1.201       .  T
C3999      C4007   1.436       .  S
C3999      C4000   1.400       .  A
C3999      C4004   1.401       .  A
C4000      C4001   1.397       .  A
C4000      H4009   1.084       .  S
C4001      C4002   1.401       .  A
C4001      H4010   1.084       .  S
C4002      C4005   1.436       .  S
C4002      C4003   1.401       .  A
C4003      C4004   1.398       .  A
C4003      H4011   1.083       .  S
C4004      H4012   1.083       .  S
C4005      C4006   1.203       .  T
C4007      C4008   1.204       .  T
C4013      C4021   1.432       .  S
C4013      C4014   1.399       .  A
C4013      C4018   1.401       .  A
C4014      C4015   1.395       .  A
C4014      H4023   1.084       .  S
C4015      C4016   1.401       .  A
C4015      H4024   1.084       .  S
C4016      C4019   1.433       .  S
C4016      C4017   1.399       .  A
C4017      C4018   1.397       .  A
C4017      H4025   1.083       .  S
C4018      H4026   1.084       .  S
C4019      C4020   1.202       .  T
C4021      C4022   1.202       .  T
C4027      C4035   1.436       .  S
C4027      C4028   1.401       .  A
C4027      C4032   1.400       .  A
C4028      C4029   1.398       .  A
C4028      H4037   1.084       .  S
C4029      C4030   1.401       .  A
C4029      H4038   1.084       .  S
C4030      C4033   1.436       .  S
C4030      C4031   1.401       .  A
C4031      C4032   1.398       .  A
C4031      H4039   1.083       .  S
C4032      H4040   1.083       .  S
C4033      C4034   1.204       .  T
C4035      C4036   1.204       .  T
C4041      C4049   1.435       .  S
C4041      C4042   1.400       .  A
C4041      C4046   1.400       .  A
C4042      C4043   1.397       .  A
C4042      H4051   1.084       .  S
C4043      C4044   1.401       .  A
C4043      H4052   1.084       .  S
C4044      C4047   1.436       .  S
C4044      C4045   1.401       .  A
C4045      C4046   1.398       .  A
C4045      H4053   1.083       .  S
C4046      H4054   1.083       .  S
C4047      C4048   1.203       .  T
C4049      C4050   1.203       .  T
C4055      C4063   1.432       .  S
C4055      C4056   1.400       .  A
C4055      C4060   1.400       .  A
C4056      C4057   1.397       .  A
C4056      H4065   1.083       .  S
C4057      C4058   1.400       .  A
C4057      H4066   1.083       .  S
C4058      C4061   1.432       .  S
C4058      C4059   1.400       .  A
C4059      C4060   1.396       .  A
C4059      H4067   1.084       .  S
C4060      H4068   1.084       .  S
C4061      C4062   1.202       .  T
C4063      C4064   1.201       .  T
C4069      C4077   1.438       .  S
C4069      C4070   1.401       .  A
C4069      C4074   1.401       .  A
C4070      C4071   1.398       .  A
C4070      H4079   1.084       .  S
C4071      C4072   1.402       .  A
C4071      H4080   1.084       .  S
C4072      C4075   1.438       .  S
C4072      C4073   1.401       .  A
C4073      C4074   1.398       .  A
C4073      H4081   1.083       .  S
C4074      H4082   1.083       .  S
C4075      C4076   1.205       .  T
C4077      C4078   1.205       .  T
C4083      C4091   1.435       .  S
C4083      C4084   1.402       .  A
C4083      C4088   1.399       .  A
C4084      C4085   1.400       .  A
C4084      H4093   1.083       .  S
C4085      C4086   1.401       .  A
C4085      H4094   1.083       .  S
C4086      C4089   1.436       .  S
C4086      C4087   1.401       .  A
C4087      C4088   1.395       .  A
C4087      H4095   1.084       .  S
C4088      H4096   1.084       .  S
C4089      C4090   1.204       .  T
C4091      C4092   1.204       .  T
C4097      C4105   1.437       .  S
C4097      C4098   1.402       .  A
C4097      C4102   1.400       .  A
C4098      C4099   1.401       .  A
C4098      H4107   1.083       .  S
C4099      C4100   1.403       .  A
C4099      H4108   1.083       .  S
C4100      C4103   1.436       .  S
C4100      C4101   1.399       .  A
C4101      C4102   1.395       .  A
C4101      H4109   1.084       .  S
C4102      H4110   1.084       .  S
C4103      C4104   1.204       .  T
C4105      C4106   1.205       .  T
C4111      C4119   1.434       .  S
C4111      C4112   1.400       .  A
C4111      C4116   1.400       .  A
C4112      C4113   1.398       .  A
C4112      H4121   1.084       .  S
C4113      C4114   1.401       .  A
C4113      H4122   1.084       .  S
C4114      C4117   1.435       .  S
C4114      C4115   1.400       .  A
C4115      C4116   1.397       .  A
C4115      H4123   1.083       .  S
C4116      H4124   1.084       .  S
C4117      C4118   1.203       .  T
C4119      C4120   1.203       .  T
C4125      C4133   1.433       .  S
C4125      C4126   1.401       .  A
C4125      C4130   1.399       .  A
C4126      C4127   1.398       .  A
C4126      H4135   1.084       .  S
C4127      C4128   1.401       .  A
C4127      H4136   1.084       .  S
C4128      C4131   1.434       .  S
C4128      C4129   1.400       .  A
C4129      C4130   1.395       .  A
C4129      H4137   1.084       .  S
C4130      H4138   1.084       .  S
C4131      C4132   1.202       .  T
C4133      C4134   1.203       .  T
C4139      C4147   1.437       .  S
C4139      C4140   1.401       .  A
C4139      C4144   1.401       .  A
C4140      C4141   1.398       .  A
C4140      H4149   1.084       .  S
C4141      C4142   1.402       .  A
C4141      H4150   1.084       .  S
C4142      C4145   1.438       .  S
C4142      C4143   1.400       .  A
C4143      C4144   1.398       .  A
C4143      H4151   1.083       .  S
C4144      H4152   1.083       .  S
C4145      C4146   1.204       .  T
C4147      C4148   1.205       .  T
C4153      C4161   1.436       .  S
C4153      C4154   1.401       .  A
C4153      C4158   1.400       .  A
C4154      C4155   1.399       .  A
C4154      H4163   1.083       .  S
C4155      C4156   1.401       .  A
C4155      H4164   1.083       .  S
C4156      C4159   1.436       .  S
C4156      C4157   1.400       .  A
C4157      C4158   1.397       .  A
C4157      H4165   1.084       .  S
C4158      H4166   1.084       .  S
C4159      C4160   1.204       .  T
C4161      C4162   1.204       .  T
C4167      C4175   1.433       .  S
C4167      C4168   1.402       .  A
C4167      C4172   1.399       .  A
C4168      C4169   1.399       .  A
C4168      H4177   1.083       .  S
C4169      C4170   1.400       .  A
C4169      H4178   1.083       .  S
C4170      C4173   1.434       .  S
C4170      C4171   1.400       .  A
C4171      C4172   1.394       .  A
C4171      H4179   1.084       .  S
C4172      H4180   1.084       .  S
C4173      C4174   1.202       .  T
C4175      C4176   1.202       .  T
C4181      C4189   1.438       .  S
C4181      C4182   1.402       .  A
C4181      C4186   1.400       .  A
C4182      C4183   1.401       .  A
C4182      H4191   1.083       .  S
C4183      C4184   1.401       .  A
C4183      H4192   1.083       .  S
C4184      C4187   1.439       .  S
C4184      C4185   1.401       .  A
C4185      C4186   1.396       .  A
C4185      H4193   1.084       .  S
C4186      H4194   1.084       .  S
C4187      C4188   1.205       .  T
C4189      C4190   1.205       .  T
C4195      C4203   1.433       .  S
C4195      C4196   1.401       .  A
C4195      C4200   1.399       .  A
C4196      C4197   1.399       .  A
C4196      H4205   1.084       .  S
C4197      C4198   1.401       .  A
C4197      H4206   1.083       .  S
C4198      C4201   1.435       .  S
C4198      C4199   1.400       .  A
C4199      C4200   1.395       .  A
C4199      H4207   1.084       .  S
C4200      H4208   1.084       .  S
C4201      C4202   1.203       .  T
C4203      C4204   1.202       .  T
C4209      C4217   1.435       .  S
C4209      C4210   1.400       .  A
C4209      C4214   1.401       .  A
C4210      C4211   1.398       .  A
C4210      H4219   1.083       .  S
C4211      C4212   1.401       .  A
C4211      H4220   1.083       .  S
C4212      C4215   1.434       .  S
C4212      C4213   1.399       .  A
C4213      C4214   1.396       .  A
C4213      H4221   1.084       .  S
C4214      H4222   1.084       .  S
C4215      C4216   1.203       .  T
C4217      C4218   1.203       .  T
C4223      C4231   1.433       .  S
C4223      C4224   1.401       .  A
C4223      C4228   1.399       .  A
C4224      C4225   1.398       .  A
C4224      H4233   1.083       .  S
C4225      C4226   1.400       .  A
C4225      H4234   1.083       .  S
C4226      C4229   1.435       .  S
C4226      C4227   1.401       .  A
C4227      C4228   1.395       .  A
C4227      H4235   1.084       .  S
C4228      H4236   1.084       .  S
C4229      C4230   1.203       .  T
C4231      C4232   1.203       .  T
C4237      C4245   1.435       .  S
C4237      C4238   1.401       .  A
C4237      C4242   1.400       .  A
C4238      C4239   1.398       .  A
C4238      H4247   1.083       .  S
C4239      C4240   1.401       .  A
C4239      H4248   1.083       .  S
C4240      C4243   1.436       .  S
C4240      C4241   1.401       .  A
C4241      C4242   1.397       .  A
C4241      H4249   1.084       .  S
C4242      H4250   1.084       .  S
C4243      C4244   1.203       .  T
C4245      C4246   1.204       .  T
C4251      C4259   1.436       .  S
C4251      C4252   1.401       .  A
C4251      C4256   1.400       .  A
C4252      C4253   1.398       .  A
C4252      H4261   1.084       .  S
C4253      C4254   1.401       .  A
C4253      H4262   1.083       .  S
C4254      C4257   1.436       .  S
C4254      C4255   1.401       .  A
C4255      C4256   1.397       .  A
C4255      H4263   1.084       .  S
C4256      H4264   1.084       .  S
C4257      C4258   1.204       .  T
C4259      C4260   1.204       .  T
C4265      C4273   1.436       .  S
C4265      C4266   1.401       .  A
C4265      C4270   1.401       .  A
C4266      C4267   1.398       .  A
C4266      H4275   1.084       .  S
C4267      C4268   1.401       .  A
C4267      H4276   1.083       .  S
C4268      C4271   1.437       .  S
C4268      C4269   1.401       .  A
C4269      C4270   1.398       .  A
C4269      H4277   1.083       .  S
C4270      H4278   1.084       .  S
C4271      C4272   1.204       .  T
C4273      C4274   1.204       .  T
C4279      C4287   1.438       .  S
C4279      C4280   1.401       .  A
C4279      C4284   1.401       .  A
C4280      C4281   1.399       .  A
C4280      H4289   1.083       .  S
C4281      C4282   1.402       .  A
C4281      H4290   1.084       .  S
C4282      C4285   1.438       .  S
C4282      C4283   1.400       .  A
C4283      C4284   1.398       .  A
C4283      H4291   1.083       .  S
C4284      H4292   1.083       .  S
C4285      C4286   1.205       .  T
C4287      C4288   1.205       .  T
C4293      C4301   1.435       .  S
C4293      C4294   1.400       .  A
C4293      C4298   1.401       .  A
C4294      C4295   1.397       .  A
C4294      H4303   1.083       .  S
C4295      C4296   1.401       .  A
C4295      H4304   1.084       .  S
C4296      C4299   1.434       .  S
C4296      C4297   1.400       .  A
C4297      C4298   1.397       .  A
C4297      H4305   1.084       .  S
C4298      H4306   1.084       .  S
C4299      C4300   1.203       .  T
C4301      C4302   1.203       .  T
C4307      C4315   1.433       .  S
C4307      C4308   1.399       .  A
C4307      C4312   1.401       .  A
C4308      C4309   1.396       .  A
C4308      H4317   1.084       .  S
C4309      C4310   1.400       .  A
C4309      H4318   1.084       .  S
C4310      C4313   1.434       .  S
C4310      C4311   1.400       .  A
C4311      C4312   1.398       .  A
C4311      H4319   1.083       .  S
C4312      H4320   1.084       .  S
C4313      C4314   1.203       .  T
C4315      C4316   1.202       .  T
C4321      C4329   1.438       .  S
C4321      C4322   1.402       .  A
C4321      C4326   1.400       .  A
C4322      C4323   1.399       .  A
C4322      H4331   1.083       .  S
C4323      C4324   1.401       .  A
C4323      H4332   1.083       .  S
C4324      C4327   1.438       .  S
C4324      C4325   1.402       .  A
C4325      C4326   1.397       .  A
C4325      H4333   1.084       .  S
C4326      H4334   1.084       .  S
C4327      C4328   1.205       .  T
C4329      C4330   1.205       .  T
C4335      C4343   1.434       .  S
C4335      C4336   1.399       .  A
C4335      C4340   1.401       .  A
C4336      C4337   1.395       .  A
C4336      H4345   1.084       .  S
C4337      C4338   1.400       .  A
C4337      H4346   1.084       .  S
C4338      C4341   1.435       .  S
C4338      C4339   1.401       .  A
C4339      C4340   1.399       .  A
C4339      H4347   1.083       .  S
C4340      H4348   1.083       .  S
C4341      C4342   1.203       .  T
C4343      C4344   1.203       .  T
C4349      C4357   1.435       .  S
C4349      C4350   1.401       .  A
C4349      C4354   1.401       .  A
C4350      C4351   1.397       .  A
C4350      H4359   1.083       .  S
C4351      C4352   1.400       .  A
C4351      H4360   1.084       .  S
C4352      C4355   1.434       .  S
C4352      C4353   1.400       .  A
C4353      C4354   1.397       .  A
C4353      H4361   1.084       .  S
C4354      H4362   1.084       .  S
C4355      C4356   1.203       .  T
C4357      C4358   1.203       .  T
C4363      C4371   1.438       .  S
C4363      C4364   1.401       .  A
C4363      C4368   1.402       .  A
C4364      C4365   1.398       .  A
C4364      H4373   1.083       .  S
C4365      C4366   1.400       .  A
C4365      H4374   1.083       .  S
C4366      C4369   1.439       .  S
C4366      C4367   1.402       .  A
C4367      C4368   1.400       .  A
C4367      H4375   1.084       .  S
C4368      H4376   1.084       .  S
C4369      C4370   1.205       .  T
C4371      C4372   1.206       .  T
C4377      C4385   1.438       .  S
C4377      C4378   1.401       .  A
C4377      C4382   1.401       .  A
C4378      C4379   1.399       .  A
C4378      H4387   1.083       .  S
C4379      C4380   1.401       .  A
C4379      H4388   1.083       .  S
C4380      C4383   1.438       .  S
C4380      C4381   1.400       .  A
C4381      C4382   1.398       .  A
C4381      H4389   1.083       .  S
C4382      H4390   1.084       .  S
C4383      C4384   1.205       .  T
C4385      C4386   1.205       .  T
C4391      C4399   1.440       .  S
C4391      C4392   1.401       .  A
C4391      C4396   1.402       .  A
C4392      C4393   1.398       .  A
C4392      H4401   1.084       .  S
C4393      C4394   1.400       .  A
C4393      H4402   1.083       .  S
C4394      C4397   1.439       .  S
C4394      C4395   1.402       .  A
C4395      C4396   1.401       .  A
C4395      H4403   1.083       .  S
C4396      H4404   1.083       .  S
C4397      C4398   1.206       .  T
C4399      C4400   1.206       .  T
C4405      C4413   1.436       .  S
C4405      C4406   1.401       .  A
C4405      C4410   1.401       .  A
C4406      C4407   1.397       .  A
C4406      H4415   1.084       .  S
C4407      C4408   1.400       .  A
C4407      H4416   1.084       .  S
C4408      C4411   1.436       .  S
C4408      C4409   1.401       .  A
C4409      C4410   1.398       .  A
C4409      H4417   1.083       .  S
C4410      H4418   1.083       .  S
C4411      C4412   1.204       .  T
C4413      C4414   1.204       .  T
C4419      C4427   1.436       .  S
C4419      C4420   1.401       .  A
C4419      C4424   1.400       .  A
C4420      C4421   1.396       .  A
C4420      H4429   1.084       .  S
C4421      C4422   1.399       .  A
C4421      H4430   1.084       .  S
C4422      C4425   1.435       .  S
C4422      C4423   1.402       .  A
C4423      C4424   1.399       .  A
C4423      H4431   1.084       .  S
C4424      H4432   1.083       .  S
C4425      C4426   1.203       .  T
C4427      C4428   1.204       .  T
C4433      C4441   1.436       .  S
C4433      C4434   1.401       .  A
C4433      C4438   1.400       .  A
C4434      C4435   1.399       .  A
C4434      H4443   1.083       .  S
C4435      C4436   1.401       .  A
C4435      H4444   1.083       .  S
C4436      C4439   1.436       .  S
C4436      C4437   1.400       .  A
C4437      C4438   1.396       .  A
C4437      H4445   1.084       .  S
C4438      H4446   1.084       .  S
C4439      C4440   1.204       .  T
C4441      C4442   1.204       .  T
C4447      C4455   1.435       .  S
C4447      C4448   1.400       .  A
C4447      C4452   1.401       .  A
C4448      C4449   1.398       .  A
C4448      H4457   1.083       .  S
C4449      C4450   1.401       .  A
C4449      H4458   1.083       .  S
C4450      C4453   1.435       .  S
C4450      C4451   1.400       .  A
C4451      C4452   1.396       .  A
C4451      H4459   1.084       .  S
C4452      H4460   1.084       .  S
C4453      C4454   1.203       .  T
C4455      C4456   1.203       .  T
C4461      C4469   1.435       .  S
C4461      C4462   1.400       .  A
C4461      C4466   1.401       .  A
C4462      C4463   1.397       .  A
C4462      H4471   1.083       .  S
C4463      C4464   1.401       .  A
C4463      H4472   1.084       .  S
C4464      C4467   1.435       .  S
C4464      C4465   1.400       .  A
C4465      C4466   1.397       .  A
C4465      H4473   1.084       .  S
C4466      H4474   1.084       .  S
C4467      C4468   1.203       .  T
C4469      C4470   1.203       .  T
C4475      C4483   1.435       .  S
C4475      C4476   1.401       .  A
C4475      C4480   1.400       .  A
C4476      C4477   1.397       .  A
C4476      H4485   1.084       .  S
C4477      C4478   1.400       .  A
C4477      H4486   1.084       .  S
C4478      C4481   1.435       .  S
C4478      C4479   1.401       .  A
C4479      C4480   1.397       .  A
C4479      H4487   1.084       .  S
C4480      H4488   1.083       .  S
C4481      C4482   1.203       .  T
C4483      C4484   1.203       .  T
C4489      C4497   1.437       .  S
C4489      C4490   1.400       .  A
C4489      C4494   1.401       .  A
C4490      C4491   1.399       .  A
C4490      H4499   1.083       .  S
C4491      C4492   1.402       .  A
C4491      H4500   1.084       .  S
C4492      C4495   1.437       .  S
C4492      C4493   1.400       .  A
C4493      C4494   1.397       .  A
C4493      H4501   1.084       .  S
C4494      H4502   1.084       .  S
C4495      C4496   1.205       .  T
C4497      C4498   1.204       .  T
C4503      C4511   1.435       .  S
C4503      C4504   1.402       .  A
C4503      C4508   1.399       .  A
C4504      C4505   1.399       .  A
C4504      H4513   1.083       .  S
C4505      C4506   1.401       .  A
C4505      H4514   1.083       .  S
C4506      C4509   1.435       .  S
C4506      C4507   1.401       .  A
C4507      C4508   1.395       .  A
C4507      H4515   1.084       .  S
C4508      H4516   1.084       .  S
C4509      C4510   1.203       .  T
C4511      C4512   1.203       .  T
C4517      C4525   1.436       .  S
C4517      C4518   1.401       .  A
C4517      C4522   1.400       .  A
C4518      C4519   1.398       .  A
C4518      H4527   1.084       .  S
C4519      C4520   1.400       .  A
C4519      H4528   1.083       .  S
C4520      C4523   1.435       .  S
C4520      C4521   1.401       .  A
C4521      C4522   1.397       .  A
C4521      H4529   1.084       .  S
C4522      H4530   1.083       .  S
C4523      C4524   1.204       .  T
C4525      C4526   1.203       .  T
C4531      C4539   1.435       .  S
C4531      C4532   1.401       .  A
C4531      C4536   1.400       .  A
C4532      C4533   1.398       .  A
C4532      H4541   1.083       .  S
C4533      C4534   1.401       .  A
C4533      H4542   1.083       .  S
C4534      C4537   1.435       .  S
C4534      C4535   1.401       .  A
C4535      C4536   1.396       .  A
C4535      H4543   1.084       .  S
C4536      H4544   1.084       .  S
C4537      C4538   1.203       .  T
C4539      C4540   1.204       .  T
C4545      C4553   1.438       .  S
C4545      C4546   1.401       .  A
C4545      C4550   1.401       .  A
C4546      C4547   1.399       .  A
C4546      H4555   1.084       .  S
C4547      C4548   1.401       .  A
C4547      H4556   1.084       .  S
C4548      C4551   1.437       .  S
C4548      C4549   1.401       .  A
C4549      C4550   1.398       .  A
C4549      H4557   1.084       .  S
C4550      H4558   1.083       .  S
C4551      C4552   1.205       .  T
C4553      C4554   1.205       .  T
C4559      C4567   1.438       .  S
C4559      C4560   1.401       .  A
C4559      C4564   1.401       .  A
C4560      C4561   1.398       .  A
C4560      H4569   1.084       .  S
C4561      C4562   1.401       .  A
C4561      H4570   1.083       .  S
C4562      C4565   1.438       .  S
C4562      C4563   1.401       .  A
C4563      C4564   1.399       .  A
C4563      H4571   1.083       .  S
C4564      H4572   1.084       .  S
C4565      C4566   1.205   1_455  T
C4567      C4568   1.205       .  T
C4573      C4581   1.438       .  S
C4573      C4574   1.401       .  A
C4573      C4578   1.401       .  A
C4574      C4575   1.398       .  A
C4574      H4583   1.084       .  S
C4575      C4576   1.401       .  A
C4575      H4584   1.084       .  S
C4576      C4579   1.437       .  S
C4576      C4577   1.401       .  A
C4577      C4578   1.399       .  A
C4577      H4585   1.083       .  S
C4578      H4586   1.083       .  S
C4579      C4580   1.205       .  T
C4581      C4582   1.205   1_545  T
C4587      C4595   1.437       .  S
C4587      C4588   1.401       .  A
C4587      C4592   1.401       .  A
C4588      C4589   1.397       .  A
C4588      H4597   1.084       .  S
C4589      C4590   1.401       .  A
C4589      H4598   1.084       .  S
C4590      C4593   1.438       .  S
C4590      C4591   1.401       .  A
C4591      C4592   1.399       .  A
C4591      H4599   1.083       .  S
C4592      H4600   1.083       .  S
C4593      C4594   1.205       .  T
C4595      C4596   1.205       .  T
C4601      C4609   1.439       .  S
C4601      C4602   1.401       .  A
C4601      C4606   1.402       .  A
C4602      C4603   1.398       .  A
C4602      H4611   1.084       .  S
C4603      C4604   1.401       .  A
C4603      H4612   1.084       .  S
C4604      C4607   1.440       .  S
C4604      C4605   1.401       .  A
C4605      C4606   1.400       .  A
C4605      H4613   1.083       .  S
C4606      H4614   1.083       .  S
C4607      C4608   1.206   1_554  T
C4609      C4610   1.206       .  T
C4615      C4623   1.437       .  S
C4615      C4616   1.401       .  A
C4615      C4620   1.401       .  A
C4616      C4617   1.398       .  A
C4616      H4625   1.084       .  S
C4617      C4618   1.401       .  A
C4617      H4626   1.083       .  S
C4618      C4621   1.439       .  S
C4618      C4619   1.401       .  A
C4619      C4620   1.399       .  A
C4619      H4627   1.083       .  S
C4620      H4628   1.083       .  S
C4621      C4622   1.205   1_455  T
C4623      C4624   1.205       .  T
C4629      C4637   1.442       .  S
C4629      C4630   1.402       .  A
C4629      C4634   1.402       .  A
C4630      C4631   1.401       .  A
C4630      H4639   1.083       .  S
C4631      C4632   1.402       .  A
C4631      H4640   1.083       .  S
C4632      C4635   1.442       .  S
C4632      C4633   1.401       .  A
C4633      C4634   1.400       .  A
C4633      H4641   1.083       .  S
C4634      H4642   1.084       .  S
C4635      C4636   1.207       .  T
C4637      C4638   1.208       .  T
C4643      C4651   1.436       .  S
C4643      C4644   1.400       .  A
C4643      C4648   1.401       .  A
C4644      C4645   1.397       .  A
C4644      H4653   1.084       .  S
C4645      C4646   1.401       .  A
C4645      H4654   1.084       .  S
C4646      C4649   1.437       .  S
C4646      C4647   1.401       .  A
C4647      C4648   1.399       .  A
C4647      H4655   1.083       .  S
C4648      H4656   1.083       .  S
C4649      C4650   1.205       .  T
C4651      C4652   1.204       .  T
C4657      C4665   1.440       .  S
C4657      C4658   1.401       .  A
C4657      C4662   1.401       .  A
C4658      C4659   1.399       .  A
C4658      H4667   1.084       .  S
C4659      C4660   1.402       .  A
C4659      H4668   1.083   1_554  S
C4660      C4663   1.441   1_554  S
C4660      C4661   1.402       .  A
C4661      C4662   1.400       .  A
C4661      H4669   1.083       .  S
C4662      H4670   1.083       .  S
C4663      C4664   1.207       .  T
C4665      C4666   1.206       .  T
C4671      C4679   1.438       .  S
C4671      C4672   1.401       .  A
C4671      C4676   1.401       .  A
C4672      C4673   1.398       .  A
C4672      H4681   1.083       .  S
C4673      C4674   1.401       .  A
C4673      H4682   1.083       .  S
C4674      C4677   1.438       .  S
C4674      C4675   1.401       .  A
C4675      C4676   1.398       .  A
C4675      H4683   1.084       .  S
C4676      H4684   1.084       .  S
C4677      C4678   1.205       .  T
C4679      C4680   1.205       .  T
C4685      C4693   1.434       .  S
C4685      C4686   1.400       .  A
C4685      C4690   1.400       .  A
C4686      C4687   1.396       .  A
C4686      H4695   1.084       .  S
C4687      C4688   1.400       .  A
C4687      H4696   1.084       .  S
C4688      C4691   1.434       .  S
C4688      C4689   1.401       .  A
C4689      C4690   1.397       .  A
C4689      H4697   1.084       .  S
C4690      H4698   1.083       .  S
C4691      C4692   1.202       .  T
C4693      C4694   1.203       .  T
C4699      C4707   1.435       .  S
C4699      C4700   1.402       .  A
C4699      C4704   1.399       .  A
C4700      C4701   1.399       .  A
C4700      H4709   1.083       .  S
C4701      C4702   1.402       .  A
C4701      H4710   1.084       .  S
C4702      C4705   1.434       .  S
C4702      C4703   1.399       .  A
C4703      C4704   1.395       .  A
C4703      H4711   1.084       .  S
C4704      H4712   1.084       .  S
C4705      C4706   1.203       .  T
C4707      C4708   1.203       .  T
C4713      C4721   1.438       .  S
C4713      C4714   1.401       .  A
C4713      C4718   1.401       .  A
C4714      C4715   1.397       .  A
C4714      H4723   1.084       .  S
C4715      C4716   1.400       .  A
C4715      H4724   1.084       .  S
C4716      C4719   1.436       .  S
C4716      C4717   1.402       .  A
C4717      C4718   1.399       .  A
C4717      H4725   1.084       .  S
C4718      H4726   1.083       .  S
C4719      C4720   1.204       .  T
C4721      C4722   1.205       .  T
C4727      C4735   1.437       .  S
C4727      C4728   1.401       .  A
C4727      C4732   1.400       .  A
C4728      C4729   1.398       .  A
C4728      H4737   1.084       .  S
C4729      C4730   1.401       .  A
C4729      H4738   1.083       .  S
C4730      C4733   1.438       .  S
C4730      C4731   1.401       .  A
C4731      C4732   1.398       .  A
C4731      H4739   1.083       .  S
C4732      H4740   1.083       .  S
C4733      C4734   1.205       .  T
C4735      C4736   1.205       .  T
C4741      C4749   1.436       .  S
C4741      C4742   1.401       .  A
C4741      C4746   1.400       .  A
C4742      C4743   1.398       .  A
C4742      H4751   1.084       .  S
C4743      C4744   1.400       .  A
C4743      H4752   1.083       .  S
C4744      C4747   1.436       .  S
C4744      C4745   1.401       .  A
C4745      C4746   1.397       .  A
C4745      H4753   1.084       .  S
C4746      H4754   1.083       .  S
C4747      C4748   1.203       .  T
C4749      C4750   1.204       .  T
C4755      C4763   1.433       .  S
C4755      C4756   1.401       .  A
C4755      C4760   1.400       .  A
C4756      C4757   1.397       .  A
C4756      H4765   1.084       .  S
C4757      C4758   1.400       .  A
C4757      H4766   1.083       .  S
C4758      C4761   1.434       .  S
C4758      C4759   1.401       .  A
C4759      C4760   1.396       .  A
C4759      H4767   1.084       .  S
C4760      H4768   1.084       .  S
C4761      C4762   1.202       .  T
C4763      C4764   1.202       .  T
C4769      C4777   1.434       .  S
C4769      C4770   1.401       .  A
C4769      C4774   1.400       .  A
C4770      C4771   1.396       .  A
C4770      H4779   1.084       .  S
C4771      C4772   1.400       .  A
C4771      H4780   1.084       .  S
C4772      C4775   1.433       .  S
C4772      C4773   1.401       .  A
C4773      C4774   1.397       .  A
C4773      H4781   1.084       .  S
C4774      H4782   1.084       .  S
C4775      C4776   1.202       .  T
C4777      C4778   1.202       .  T
C4783      C4791   1.440       .  S
C4783      C4784   1.401       .  A
C4783      C4788   1.402       .  A
C4784      C4785   1.398       .  A
C4784      H4793   1.083       .  S
C4785      C4786   1.401       .  A
C4785      H4794   1.084       .  S
C4786      C4789   1.439       .  S
C4786      C4787   1.401       .  A
C4787      C4788   1.400       .  A
C4787      H4795   1.083       .  S
C4788      H4796   1.083       .  S
C4789      C4790   1.205       .  T
C4791      C4792   1.207       .  T
C4797      C4805   1.435       .  S
C4797      C4798   1.400       .  A
C4797      C4802   1.401       .  A
C4798      C4799   1.398       .  A
C4798      H4807   1.083       .  S
C4799      C4800   1.401       .  A
C4799      H4808   1.084       .  S
C4800      C4803   1.434       .  S
C4800      C4801   1.399       .  A
C4801      C4802   1.396       .  A
C4801      H4809   1.084       .  S
C4802      H4810   1.084       .  S
C4803      C4804   1.203       .  T
C4805      C4806   1.203       .  T
C4811      C4819   1.435       .  S
C4811      C4812   1.401       .  A
C4811      C4816   1.400       .  A
C4812      C4813   1.397       .  A
C4812      H4821   1.083       .  S
C4813      C4814   1.400       .  A
C4813      H4822   1.083       .  S
C4814      C4817   1.435       .  S
C4814      C4815   1.401       .  A
C4815      C4816   1.397       .  A
C4815      H4823   1.084       .  S
C4816      H4824   1.084       .  S
C4817      C4818   1.203       .  T
C4819      C4820   1.204       .  T
C4825      C4833   1.432       .  S
C4825      C4826   1.401       .  A
C4825      C4830   1.399       .  A
C4826      C4827   1.396       .  A
C4826      H4835   1.084       .  S
C4827      C4828   1.399       .  A
C4827      H4836   1.084       .  S
C4828      C4831   1.431       .  S
C4828      C4829   1.400       .  A
C4829      C4830   1.396       .  A
C4829      H4837   1.084       .  S
C4830      H4838   1.083       .  S
C4831      C4832   1.201       .  T
C4833      C4834   1.201       .  T
C4839      C4847   1.435       .  S
C4839      C4840   1.400       .  A
C4839      C4844   1.401       .  A
C4840      C4841   1.397       .  A
C4840      H4849   1.084       .  S
C4841      C4842   1.402       .  A
C4841      H4850   1.084       .  S
C4842      C4845   1.435       .  S
C4842      C4843   1.400       .  A
C4843      C4844   1.398       .  A
C4843      H4851   1.083       .  S
C4844      H4852   1.084       .  S
C4845      C4846   1.203       .  T
C4847      C4848   1.204       .  T
C4853      C4861   1.433       .  S
C4853      C4854   1.401       .  A
C4853      C4858   1.400       .  A
C4854      C4855   1.397       .  A
C4854      H4863   1.084       .  S
C4855      C4856   1.400       .  A
C4855      H4864   1.084       .  S
C4856      C4859   1.433       .  S
C4856      C4857   1.400       .  A
C4857      C4858   1.396       .  A
C4857      H4865   1.084       .  S
C4858      H4866   1.084       .  S
C4859      C4860   1.202       .  T
C4861      C4862   1.202       .  T
C4867      C4875   1.433       .  S
C4867      C4868   1.401       .  A
C4867      C4872   1.399       .  A
C4868      C4869   1.398       .  A
C4868      H4877   1.083       .  S
C4869      C4870   1.401       .  A
C4869      H4878   1.084       .  S
C4870      C4873   1.433       .  S
C4870      C4871   1.400       .  A
C4871      C4872   1.395       .  A
C4871      H4879   1.084       .  S
C4872      H4880   1.084       .  S
C4873      C4874   1.201       .  T
C4875      C4876   1.203       .  T
