geometry optimzed in LAMMPS
_audit_creation_date              2020-11-30 
_audit_creation_method            'lammps2cif' 
_symmetry_space_group_name_H-M    'P1' 
_symmetry_Int_Tables_number       1 
_symmetry_cell_setting            triclinic 
loop_ 
_symmetry_equiv_pos_as_xyz 
  x,y,z 
_cell_length_a                    27.39171338 
_cell_length_b                    28.23917960724108 
_cell_length_c                    27.179984804203727 
_cell_angle_alpha                 85.85810696598615 
_cell_angle_beta                  89.89548778631342 
_cell_angle_gamma                 88.45636111425665 
loop_ 
_atom_site_label 
_atom_site_type_symbol 
_atom_site_fract_x 
_atom_site_fract_y 
_atom_site_fract_z 
_atom_site_charge 
O1          O  0.33841605  0.69490962  0.74447627    -0.79500
O2          O  0.33844857  0.83316363  0.72789179    -0.79500
O3          O  0.26235102  0.72338901  0.63448726    -0.79500
O4          O  0.28156056  0.80299589  0.84369349    -0.79400
O5          O  0.32978345  0.75407874  0.65656147    -0.79600
O6          O  0.33934063  0.76351872  0.80761813    -0.79500
O7          O  0.27620102  0.86369876  0.76688232    -0.79500
O8          O  0.27852574  0.66021690  0.70934052    -0.79500
C9          C  0.32412262  0.66286933  0.71877501     1.10200
C10         C  0.32150791  0.86283128  0.75847932     1.10100
C11         C  0.30801266  0.72569308  0.62991136     1.10300
C12         C  0.32668290  0.79041852  0.84031073     1.10100
O13         O  0.24773015  0.72737211  0.85189591    -0.79500
O14         O  0.22724734  0.79928682  0.63205222    -0.79500
O15         O  0.18674776  0.69787795  0.75400183    -0.79500
O16         O  0.18310250  0.84100907  0.73614794    -0.79400
O17         O  0.24498154  0.86372858  0.68863733    -0.79500
O18         O  0.24770910  0.66006796  0.79050542    -0.79500
O19         O  0.18394380  0.76560529  0.81877390    -0.79400
O20         O  0.17627206  0.76047339  0.68151826    -0.79500
Co21       Co  0.29244312  0.71562619  0.79383677     1.51500
Co22       Co  0.28623582  0.80747757  0.68109955     1.51700
Co23       Co  0.22708241  0.71413910  0.69868665     1.51600
Co24       Co  0.23109001  0.81299252  0.78749094     1.51500
O25         O  0.25962279  0.76327724  0.74019140    -1.41400
C26         C  0.20169103  0.73552458  0.85172817     1.10200
C27         C  0.18319583  0.78667314  0.64339023     1.10300
C28         C  0.20236706  0.66372171  0.78096606     1.10200
C29         C  0.20212266  0.87081276  0.70421772     1.10200
O30         O  0.74069206  0.31196027  0.65985834    -0.79500
O31         O  0.75673390  0.32085004  0.82927043    -0.79500
O32         O  0.64836811  0.27369526  0.71780399    -0.79500
O33         O  0.85094425  0.27108976  0.78440814    -0.79400
O34         O  0.69047089  0.32622729  0.75447522    -0.79600
O35         O  0.81055185  0.32326126  0.73349546    -0.79500
O36         O  0.79666913  0.25821384  0.86085854    -0.79500
O37         O  0.70544551  0.24689222  0.64598487    -0.79500
C38         C  0.71248434  0.28949441  0.63343140     1.10200
C39         C  0.78478466  0.30134192  0.86235106     1.10100
C40         C  0.65681277  0.31717175  0.72639232     1.10300
C41         C  0.84078545  0.31423042  0.76809368     1.10100
O42         O  0.85644648  0.23302020  0.71128151    -0.79500
O43         O  0.64447657  0.23655832  0.79862766    -0.79500
O44         O  0.74492017  0.16562653  0.69701605    -0.79500
O45         O  0.75583925  0.17110736  0.83697963    -0.79400
O46         O  0.71739156  0.23363327  0.86285049    -0.79500
O47         O  0.78636691  0.21742633  0.65031571    -0.79500
O48         O  0.82468945  0.17469193  0.75658708    -0.79400
O49         O  0.68604772  0.17896108  0.77092626    -0.79500
Co50       Co  0.79465618  0.27169834  0.69375703     1.51500
Co51       Co  0.70566608  0.27858922  0.80580477     1.51700
Co52       Co  0.69933226  0.21716483  0.71255870     1.51600
Co53       Co  0.80306595  0.21864456  0.80470373     1.51500
O54         O  0.75130163  0.24729718  0.75411414    -1.41400
C55         C  0.85686921  0.18935148  0.72635220     1.10200
C56         C  0.64877476  0.19226839  0.79169273     1.10300
C57         C  0.77421504  0.17470494  0.66180774     1.10200
C58         C  0.72500970  0.18941526  0.86623625     1.10200
O59         O  0.66475698  0.75069338  0.21328917    -0.79500
O60         O  0.82847124  0.72531962  0.19281714    -0.79500
O61         O  0.71702349  0.83683660  0.24438562    -0.79500
O62         O  0.78696704  0.63705545  0.24847663    -0.79400
O63         O  0.75411266  0.79648737  0.18731701    -0.79600
O64         O  0.73471747  0.67770068  0.19745917    -0.79500
O65         O  0.86247014  0.69091506  0.25817125    -0.79500
O66         O  0.64464775  0.78282267  0.27975585    -0.79500
C67         C  0.63748629  0.77962008  0.23446861     1.06000
C68         C  0.86140301  0.69737934  0.21190619     1.10100
C69         C  0.72654288  0.83062315  0.19867562     1.10300
C70         C  0.76873617  0.64604433  0.20474164     1.10100
O71         O  0.71165586  0.63592282  0.29109721    -0.79500
O72         O  0.79870820  0.83753751  0.27002294    -0.79500
O73         O  0.69983912  0.74642304  0.36486237    -0.79500
O74         O  0.83397398  0.72744349  0.34917033    -0.79400
O75         O  0.86155495  0.76795722  0.28244329    -0.79500
O76         O  0.65295342  0.70482102  0.31917091    -0.79500
O77         O  0.75672414  0.65524842  0.35204295    -0.79400
O78         O  0.77079426  0.80648255  0.33909103    -0.79500
Co79       Co  0.69521818  0.69650505  0.25506746     1.51500
Co80       Co  0.80559891  0.77759549  0.23453418     1.51700
Co81       Co  0.71256470  0.78905552  0.30597033     1.51600
Co82       Co  0.80455727  0.68250602  0.30223816     1.51500
O83         O  0.75460529  0.73592512  0.27486057    -1.41400
C84         C  0.72891517  0.62603407  0.33359823     1.10200
C85         C  0.79423009  0.83816734  0.31635191     1.10300
C86         C  0.66490890  0.71852487  0.36194470     1.10200
C87         C  0.86392046  0.75745496  0.32892920     1.10200
C88         C  0.54442245  0.99791030  0.03504046     0.03000
C89         C  0.53497565  0.03713381  0.99782080     0.03000
C90         C  0.49677702  0.03334352  0.96011790     0.03000
C91         C  0.46279551  0.99407284  0.96480312     0.03000
C92         C  0.47255081  0.95531530  0.00284349     0.03000
C93         C  0.50755184  0.96198527  0.04285395     0.03000
N94         N  0.59270098  0.99142125  0.06157440    -0.02800
C95         C  0.62157133  0.95357284  0.04893806    -0.00200
C96         C  0.65053345  0.96925845  0.00955179    -0.23100
C97         C  0.65539245  0.01646470  0.01549819    -0.23300
C98         C  0.62679741  0.02572836  0.05617163    -0.00300
H99         H  0.67825136  0.94861532  0.99156248     0.13500
H100        H  0.68597456  0.03649820  0.00102264     0.13500
N101        N  0.55954336  0.08284990  0.00305619    -0.02800
C102        C  0.54663170  0.10817402  0.04262020    -0.00200
C103        C  0.50893738  0.13932689  0.02764294    -0.23100
C104        C  0.51894842  0.14946162  0.97907848    -0.23300
C105        C  0.55535360  0.11751370  0.96619956    -0.00300
H106        H  0.49101235  0.16514035  0.04963223     0.13500
H107        H  0.50862997  0.18300525  0.96007237     0.13500
N108        N  0.41546230  0.99727248  0.93617794    -0.02800
C109        C  0.37756966  0.02289296  0.95676856    -0.00200
C110        C  0.35116238  0.99185047  0.98693058    -0.23100
C111        C  0.35635122  0.95029545  0.96490485    -0.23300
C112        C  0.39175875  0.95643230  0.92805977    -0.00300
H113        H  0.31823517  0.00047445  0.00686072     0.13500
H114        H  0.32730456  0.92507815  0.96641663     0.13500
N115        N  0.49420696  0.06791684  0.91592956    -0.02800
C116        C  0.45093669  0.09093466  0.90452357    -0.00200
C117        C  0.43595166  0.07763853  0.85922481    -0.23100
C118        C  0.47094730  0.04808848  0.84145267    -0.23300
C119        C  0.51087334  0.05470890  0.87063365    -0.00300
H120        H  0.40874751  0.09648976  0.83590538     0.13500
H121        H  0.47272118  0.04115232  0.80277223     0.13500
N122        N  0.50139583  0.93695120  0.09308873    -0.02800
C123        C  0.53586597  0.94046549  0.12884541    -0.00200
C124        C  0.52357817  0.97951207  0.15511152    -0.23100
C125        C  0.47462177  0.98714966  0.14774361    -0.23300
C126        C  0.46133422  0.95062496  0.11946728    -0.00300
H127        H  0.54288768  0.99151782  0.18638575     0.13500
H128        H  0.45169280  0.00447609  0.17392041     0.13500
N129        N  0.45097921  0.90790711  0.99778906    -0.02800
C130        C  0.45293514  0.87566519  0.03700853    -0.00200
C131        C  0.49400199  0.84624947  0.03153537    -0.23100
C132        C  0.50574629  0.85084230  0.98263473    -0.23300
C133        C  0.46894377  0.88008756  0.96176196    -0.00300
H134        H  0.50578985  0.81587828  0.05547175     0.13500
H135        H  0.52589072  0.82335667  0.96485128     0.13500
C136        C  0.95138068  0.50714221  0.01965111     0.03000
C137        C  0.95368497  0.47151472  0.98329194     0.03000
C138        C  0.98620319  0.47660838  0.94021672     0.03000
C139        C  0.03150483  0.50412446  0.94407317     0.03000
C140        C  0.03588456  0.53373359  0.98704112     0.03000
C141        C  0.99553809  0.53517984  0.02452308     0.03000
N142        N  0.08145672  0.56101855  0.99432934    -0.02800
C143        C  0.11273588  0.57375617  0.95604977    -0.00200
C144        C  0.15203940  0.54139191  0.95956235    -0.23100
C145        C  0.14937136  0.51559402  0.00350868    -0.23300
C146        C  0.11472775  0.54084112  0.02807906    -0.00300
H147        H  0.18680286  0.54649643  0.94147407     0.13500
H148        H  0.18136028  0.49735208  0.01969265     0.13500
N149        N  0.07275695  0.50130579  0.90683232    -0.02800
C150        C  0.07068515  0.52568395  0.86050022    -0.00200
C151        C  0.08399218  0.49580663  0.82416628    -0.23100
C152        C  0.10392915  0.45654731  0.84736516    -0.23300
C153        C  0.09957693  0.46025006  0.89802450    -0.00300
H154        H  0.08850987  0.50522314  0.78497663     0.13500
H155        H  0.12224367  0.42943823  0.82785270     0.13500
N156        N  0.00212115  0.55993328  0.07088413    -0.02800
C157        C  0.96777839  0.55562262  0.10727466    -0.00200
C158        C  0.97833466  0.51360982  0.13626283    -0.23100
C159        C  0.02643541  0.50396965  0.12827389    -0.23300
C160        C  0.04007556  0.54483398  0.10102517    -0.00300
H161        H  0.96039951  0.50052771  0.16977926     0.13500
H162        H  0.04838072  0.48214039  0.15450174     0.13500
N163        N  0.90682332  0.51216181  0.05362582    -0.02800
C164        C  0.87360419  0.54999137  0.04450387    -0.00200
C165        C  0.84018562  0.53562725  0.01084742    -0.23100
C166        C  0.83795182  0.48783346  0.02218883    -0.23300
C167        C  0.87371053  0.47687575  0.05784897    -0.00300
H168        H  0.80896213  0.55615995  0.99599046     0.13500
H169        H  0.80559689  0.46791606  0.01599043     0.13500
N170        N  0.97120407  0.45298246  0.89469703    -0.02800
C171        C  0.92839276  0.46612576  0.86985510    -0.00200
C172        C  0.94042323  0.49898733  0.83194562    -0.23100
C173        C  0.98448751  0.48145999  0.81741289    -0.23300
C174        C  0.00035443  0.44817798  0.85500184    -0.00300
H175        H  0.91560552  0.51772384  0.80595431     0.13500
H176        H  0.99855169  0.48687467  0.78029731     0.13500
N177        N  0.92958126  0.42570567  0.99513413    -0.02800
C178        C  0.94755819  0.39744916  0.03438050    -0.00200
C179        C  0.98542443  0.36958676  0.01714306    -0.23100
C180        C  0.97032630  0.36249726  0.97063305    -0.23300
C181        C  0.92962387  0.39231772  0.96192193    -0.00300
H182        H  0.00762299  0.34324428  0.03823229     0.13500
H183        H  0.97917400  0.33047056  0.95248040     0.13500
C184        C  0.50175920  0.44895551  0.54078704     0.03000
C185        C  0.47003428  0.49209102  0.54550929     0.03000
C186        C  0.46818195  0.53002265  0.50475992     0.03000
C187        C  0.50655456  0.53262350  0.46727234     0.03000
C188        C  0.53227190  0.48678181  0.45704725     0.03000
C189        C  0.52772254  0.44403256  0.49187126     0.03000
N190        N  0.50537007  0.41151801  0.58414406    -0.02800
C191        C  0.54764099  0.39999122  0.61106301    -0.00200
C192        C  0.55353791  0.35094659  0.61817248    -0.23100
C193        C  0.51403542  0.33119046  0.60121894    -0.23300
C194        C  0.48229918  0.36813141  0.58516559    -0.00300
H195        H  0.58239501  0.33018874  0.63656562     0.13500
H196        H  0.50589464  0.29386360  0.60839189     0.13500
N197        N  0.42293202  0.56043383  0.49567636    -0.02800
C198        C  0.39338002  0.54549902  0.45929269    -0.00200
C199        C  0.36459247  0.51004334  0.48059618    -0.23100
C200        C  0.35693505  0.52447905  0.52674618    -0.23300
C201        C  0.38824548  0.56220454  0.53177054    -0.00300
H202        H  0.33758671  0.49027716  0.46225758     0.13500
H203        H  0.32413015  0.51583685  0.54713523     0.13500
N204        N  0.56048406  0.48044943  0.41052061    -0.02800
C205        C  0.57754211  0.51666616  0.38030663    -0.00200
C206        C  0.54955473  0.52114663  0.33723230    -0.23100
C207        C  0.51920350  0.48410640  0.33903425    -0.23300
C208        C  0.54182144  0.45412300  0.37469208    -0.00300
H209        H  0.55651175  0.54374220  0.30418076     0.13500
H210        H  0.50092914  0.47391495  0.30629562     0.13500
N211        N  0.51644068  0.58059820  0.43997260    -0.02800
C212        C  0.50026410  0.59214926  0.39206575    -0.00200
C213        C  0.53571325  0.61305981  0.36276083    -0.23100
C214        C  0.57540402  0.61407259  0.39037212    -0.23300
C215        C  0.56239999  0.60145354  0.43898640    -0.00300
H216        H  0.53223248  0.62795224  0.32497284     0.13500
H217        H  0.60895163  0.62861135  0.37636547     0.13500
N218        N  0.44044541  0.49942429  0.59143645    -0.02800
C219        C  0.45692277  0.53261575  0.62203446    -0.00200
C220        C  0.48284733  0.50857945  0.65976061    -0.23100
C221        C  0.46130187  0.46566048  0.66456564    -0.23300
C222        C  0.43032215  0.46249764  0.62494157    -0.00300
H223        H  0.49816427  0.52434533  0.69128144     0.13500
H224        H  0.45663350  0.44676652  0.70004376     0.13500
N225        N  0.55195784  0.39793169  0.47693813    -0.02800
C226        C  0.55565389  0.35982938  0.50943319    -0.00200
C227        C  0.51886722  0.32800775  0.49975889    -0.23100
C228        C  0.49856919  0.34375122  0.45603942    -0.23300
C229        C  0.53580478  0.37202658  0.43854730    -0.00300
H230        H  0.51333005  0.29279805  0.51695067     0.13500
H231        H  0.47683748  0.32082821  0.43517520     0.13500
C232        C  0.04404615  0.96632818  0.49254183     0.03000
C233        C  0.00362990  0.96416907  0.45683321     0.03000
C234        C  0.96167307  0.99931747  0.45784905     0.03000
C235        C  0.95649330  0.02758168  0.50276212     0.03000
C236        C  0.99898936  0.03366108  0.53479253     0.03000
C237        C  0.04527358  0.00794473  0.52483510     0.03000
N238        N  0.99371869  0.06454794  0.57854391    -0.02800
C239        C  0.03162624  0.06902919  0.61055077    -0.00200
C240        C  0.02967937  0.03007440  0.64562796    -0.23100
C241        C  0.98413295  0.01323593  0.64389846    -0.23300
C242        C  0.96193194  0.04992877  0.61566690    -0.00300
H243        H  0.05084338  0.02280582  0.67893019     0.13500
H244        H  0.96930649  0.99200481  0.67466084     0.13500
N245        N  0.09124579  0.02409519  0.54871390    -0.02800
C246        C  0.11279443  0.06745693  0.53670102    -0.00200
C247        C  0.14727549  0.06020084  0.50064936    -0.23100
C248        C  0.16549496  0.01632650  0.51588688    -0.23300
C249        C  0.13210447  0.99687079  0.55001904    -0.00300
H250        H  0.17023504  0.08677035  0.48254007     0.13500
H251        H  0.20286255  0.00460135  0.51005178     0.13500
N252        N  0.08310367  0.92705427  0.49342788    -0.02800
C253        C  0.09518465  0.89692711  0.53463865    -0.00200
C254        C  0.14573668  0.89389771  0.53956069    -0.23100
C255        C  0.16563956  0.91878931  0.50098638    -0.23300
C256        C  0.12756294  0.93252154  0.46898414    -0.00300
H257        H  0.16746333  0.87418702  0.56726536     0.13500
H258        H  0.20447027  0.91735535  0.49269925     0.13500
N259        N  0.90912231  0.05017668  0.51795171    -0.02800
C260        C  0.87064245  0.05806967  0.48734073    -0.00200
C261        C  0.83565242  0.02376055  0.49921442    -0.23100
C262        C  0.84974477  0.00082273  0.54257484    -0.23300
C263        C  0.88296779  0.03226208  0.55816806    -0.00300
H264        H  0.79983215  0.02089497  0.48317794     0.13500
H265        H  0.82460608  0.98003332  0.56537379     0.13500
N266        N  0.92664199  0.00682206  0.41408196    -0.02800
C267        C  0.91950600  0.05041023  0.38738485    -0.00200
C268        C  0.86987921  0.06037622  0.38094097    -0.23100
C269        C  0.84545203  0.02244168  0.39738122    -0.23300
C270        C  0.87987643  0.98829319  0.41369507    -0.00300
H271        H  0.85193961  0.09112788  0.36293754     0.13500
H272        H  0.80691896  0.01764210  0.39050432     0.13500
N273        N  0.00868295  0.92873798  0.41766114    -0.02800
C274        C  0.04016737  0.94222766  0.37976411    -0.00200
C275        C  0.01321412  0.96998466  0.34581911    -0.23100
C276        C  0.96952280  0.94802938  0.34784061    -0.23300
C277        C  0.96860190  0.91785507  0.39058233    -0.00300
H278        H  0.02710976  0.98634838  0.31162437     0.13500
H279        H  0.94936329  0.94337980  0.31466823     0.13500
O280        O  0.23975863  0.19488187  0.68494963    -0.79500
O281        O  0.24018909  0.32960542  0.68389849    -0.79500
O282        O  0.12415541  0.22247249  0.73795549    -0.79500
O283        O  0.33857155  0.28819149  0.75609859    -0.79400
O284        O  0.15944573  0.25964575  0.67482211    -0.79600
O285        O  0.30864776  0.25502993  0.69342125    -0.79500
O286        O  0.27094430  0.35428535  0.75147626    -0.79500
O287        O  0.19176352  0.15619412  0.73749956    -0.79500
C288        C  0.20852781  0.16421957  0.69342947     1.10200
C289        C  0.26698322  0.35834327  0.70465590     1.10100
C290        C  0.12702331  0.23012160  0.69193631     1.10300
C291        C  0.33949696  0.28105536  0.71055374     1.10100
O292        O  0.33634372  0.20863910  0.79009038    -0.79500
O293        O  0.12385335  0.29789122  0.76248132    -0.79500
O294        O  0.22112891  0.17871111  0.83991434    -0.79500
O295        O  0.22411011  0.30770686  0.83944826    -0.79400
O296        O  0.19110104  0.35482617  0.78008722    -0.79500
O297        O  0.26505419  0.14848894  0.78186753    -0.79500
O298        O  0.29516430  0.24281335  0.84671782    -0.79400
O299        O  0.14256529  0.25461868  0.83084236    -0.79500
Co300      Co  0.28312408  0.20560907  0.73794341     1.51500
Co301      Co  0.18422663  0.30602644  0.72548580     1.51700
Co302      Co  0.17547868  0.20638621  0.78732593     1.51600
Co303      Co  0.27778547  0.29464764  0.79744416     1.51500
O304        O  0.22968300  0.25308906  0.76171567    -1.41400
C305        C  0.33168174  0.21866811  0.83476354     1.10200
C306        C  0.11449602  0.28571108  0.80689726     1.10300
C307        C  0.25212234  0.14773695  0.82680279     1.10200
C308        C  0.20073407  0.34476291  0.82633441     1.10200
O309        O  0.79562003  0.14021144  0.28404881    -0.79500
O310        O  0.75736404  0.34574104  0.20539292    -0.79500
O311        O  0.82228813  0.25687346  0.17640083    -0.79500
O312        O  0.82437589  0.23976250  0.32986287    -0.79400
O313        O  0.76023709  0.28671626  0.13588420    -0.79600
O314        O  0.76392948  0.19379542  0.35217731    -0.79500
O315        O  0.82203399  0.32013674  0.24925168    -0.79500
O316        O  0.84205690  0.18922966  0.23985061    -0.79500
C317        C  0.83832282  0.15415880  0.26999840     1.10200
C318        C  0.80171586  0.35056820  0.21747530     1.10100
C319        C  0.80611942  0.28194302  0.14084309     1.10300
C320        C  0.80525734  0.20965885  0.36111315     1.10100
O321        O  0.67256253  0.21961759  0.30980247    -0.79500
O322        O  0.67420336  0.23994630  0.18002033    -0.79500
O323        O  0.76266394  0.13488003  0.20412043    -0.79500
O324        O  0.72562217  0.34024414  0.28513363    -0.79400
O325        O  0.66886230  0.30486964  0.24688552    -0.79500
O326        O  0.69387992  0.15356064  0.23715832    -0.79500
O327        O  0.72239468  0.26667888  0.34701382    -0.79400
O328        O  0.73466000  0.20666610  0.14092079    -0.79500
Co329      Co  0.73124772  0.18114159  0.29092088     1.51500
Co330      Co  0.71640007  0.28949070  0.19629369     1.51700
Co331      Co  0.78894490  0.20065091  0.19384987     1.51600
Co332      Co  0.77470307  0.28679270  0.29764140     1.51500
O333        O  0.75287330  0.23969574  0.24538377    -1.41400
C334        C  0.67956147  0.25083048  0.34076364     1.10200
C335        C  0.68870542  0.21387041  0.14746578     1.10300
C336        C  0.71776957  0.12735791  0.20943518     1.10200
C337        C  0.68111794  0.33696134  0.27370819     1.10200
O338        O  0.31969403  0.66891749  0.24853007    -0.79500
O339        O  0.16909672  0.67053217  0.24085565    -0.79500
O340        O  0.27669430  0.72466935  0.34562684    -0.79500
O341        O  0.20464530  0.71790602  0.13225710    -0.79400
O342        O  0.23689093  0.66814047  0.31362519    -0.79600
O343        O  0.24865183  0.66221182  0.17482632    -0.79500
O344        O  0.13432298  0.72764138  0.19374244    -0.79500
O345        O  0.34669964  0.73143211  0.28051803    -0.79500
C346        C  0.34960626  0.68716755  0.27630578     1.10200
C347        C  0.13680042  0.68414076  0.20985423     1.10100
C348        C  0.26683608  0.68088134  0.34486300     1.10300
C349        C  0.21783464  0.67430292  0.14091384     1.10100
O350        O  0.28148115  0.74832353  0.12857635    -0.79500
O351        O  0.19732354  0.75924217  0.34230220    -0.79500
O352        O  0.30151595  0.81713969  0.23397225    -0.79500
O353        O  0.16937723  0.81895905  0.22279145    -0.79400
O354        O  0.13383329  0.76303437  0.26934751    -0.79500
O355        O  0.34575306  0.76323991  0.19874748    -0.79500
O356        O  0.24562090  0.81249645  0.15052304    -0.79400
O357        O  0.23426868  0.81607669  0.30118287    -0.79500
Co358      Co  0.29478095  0.71117735  0.19214001     1.51500
Co359      Co  0.18852639  0.71541742  0.28736047     1.51700
Co360      Co  0.28553579  0.77144972  0.28596990     1.51600
Co361      Co  0.19278097  0.76948407  0.17929946     1.51500
O362        O  0.24019662  0.74125395  0.23596060    -1.41400
C363        C  0.27789578  0.79281806  0.12450918     1.10200
C364        C  0.20864377  0.80260219  0.33703639     1.10300
C365        C  0.33852367  0.80631898  0.21020633     1.10200
C366        C  0.13837635  0.80683853  0.25596876     1.10200
C367        C  0.09787361  0.92259892  0.30948067    -0.20600
C368        C  0.06914695  0.90635887  0.35053380    -0.08700
C369        C  0.06265515  0.85686098  0.35746413     0.30200
C370        C  0.08143130  0.82594754  0.32381706    -0.20600
C371        C  0.11031377  0.84232201  0.28363072    -0.08700
C372        C  0.11769580  0.89134566  0.27634178     0.30200
F373        F  0.14513024  0.90915068  0.23809062    -0.19200
H374        H  0.10508804  0.96002754  0.30298816     0.18600
H375        H  0.07601186  0.78830515  0.33164025     0.18600
F376        F  0.04142130  0.83712391  0.39885011    -0.19200
C377        C  0.95187280  0.12151824  0.34509545    -0.20600
C378        C  0.94952786  0.07158061  0.34477869    -0.08700
C379        C  0.93450340  0.05825786  0.29755611     0.30200
C380        C  0.89614992  0.08381024  0.27277025    -0.20600
C381        C  0.88422210  0.12925600  0.28655609    -0.08700
C382        C  0.91859146  0.15067573  0.31570971     0.30200
F383        F  0.91905870  0.19855302  0.31606090    -0.19200
H384        H  0.97295729  0.13710998  0.37309275     0.18600
H385        H  0.87716097  0.06899510  0.24277276     0.18600
F386        F  0.95431932  0.02078648  0.27604916    -0.19200
C387        C  0.89105281  0.13956373  0.44699095    -0.20600
C388        C  0.85613383  0.10742790  0.46688647    -0.08700
C389        C  0.80720224  0.12366824  0.46810887     0.30200
C390        C  0.79288030  0.16487202  0.44067532    -0.20600
C391        C  0.82607959  0.18946387  0.40913777    -0.08700
C392        C  0.87589635  0.18131146  0.41890200     0.30200
F393        F  0.90914042  0.21341226  0.40268623    -0.19200
H394        H  0.92964311  0.13114748  0.45143912     0.18600
H395        H  0.75416475  0.17392800  0.43927118     0.18600
F396        F  0.77261553  0.09973263  0.49476869    -0.19200
C397        C  0.13349952  0.85556799  0.43369149    -0.20600
C398        C  0.14196972  0.90419511  0.42709979    -0.08700
C399        C  0.17777336  0.91923543  0.39258241     0.30200
C400        C  0.20091107  0.88595176  0.36360249    -0.20600
C401        C  0.19047201  0.83714469  0.37091375    -0.08700
C402        C  0.15852270  0.82220547  0.40833326     0.30200
F403        F  0.14805095  0.77573161  0.41813716    -0.19200
H404        H  0.10614618  0.84398746  0.45837774     0.18600
H405        H  0.22654840  0.89828630  0.33546487     0.18600
F406        F  0.19080419  0.96535397  0.38789902    -0.19200
C407        C  0.16568246  0.13568622  0.56534955    -0.20600
C408        C  0.13975436  0.09346612  0.57714719    -0.08700
C409        C  0.14478438  0.07451131  0.62693415     0.30200
C410        C  0.16938321  0.09639288  0.66252720    -0.20600
C411        C  0.19083448  0.13903208  0.65165609    -0.08700
C412        C  0.19126217  0.15809669  0.60201456     0.30200
F413        F  0.21326224  0.19975661  0.58949523    -0.19200
H414        H  0.16462200  0.15241592  0.52825992     0.18600
H415        H  0.16936684  0.08048405  0.70008697     0.18600
F416        F  0.12242090  0.03674273  0.64551813    -0.19200
C417        C  0.07016151  0.16281301  0.69649376    -0.20600
C418        C  0.09331354  0.19794723  0.66543858    -0.08700
C419        C  0.08405880  0.19685896  0.61442076     0.30200
C420        C  0.05950840  0.15741860  0.59612648    -0.20600
C421        C  0.04669192  0.11735495  0.62814201    -0.08700
C422        C  0.04834431  0.12383819  0.67902771     0.30200
F423        F  0.02806997  0.09306855  0.71336641    -0.19200
H424        H  0.07077283  0.16309155  0.73628449     0.18600
H425        H  0.05486925  0.15609701  0.55671345     0.18600
F426        F  0.10054833  0.23184673  0.58235358    -0.19200
C427        C  0.65404512  0.30188213  0.40613410    -0.20600
C428        C  0.63955386  0.27280903  0.36962777    -0.08700
C429        C  0.58983510  0.27398991  0.35649161     0.30200
C430        C  0.55666515  0.30589490  0.37800047    -0.20600
C431        C  0.57252093  0.33895497  0.41154041    -0.08700
C432        C  0.62267293  0.33574167  0.42405677     0.30200
F433        F  0.64418056  0.36848060  0.44960566    -0.19200
H434        H  0.69186769  0.30227452  0.41768043     0.18600
H435        H  0.51895213  0.30641769  0.36623298     0.18600
F436        F  0.57381590  0.24683183  0.32095448    -0.19200
C437        C  0.30890495  0.39508275  0.62653909    -0.20600
C438        C  0.29704080  0.39534023  0.67719790    -0.08700
C439        C  0.32072771  0.42802617  0.70486584     0.30200
C440        C  0.36134777  0.45134986  0.68620105    -0.20600
C441        C  0.37921253  0.44536727  0.63811277    -0.08700
C442        C  0.34905604  0.42113511  0.60669672     0.30200
F443        F  0.36157187  0.41795400  0.55871756    -0.19200
H444        H  0.28991204  0.37196086  0.60339039     0.18600
H445        H  0.37953882  0.47393508  0.71052104     0.18600
F446        F  0.30692487  0.43532915  0.75179160    -0.19200
C447        C  0.42918633  0.58566067  0.33685817    -0.20600
C448        C  0.45192607  0.60929512  0.37428569    -0.08700
C449        C  0.44244238  0.65841432  0.37561717     0.30200
C450        C  0.41098120  0.68263438  0.34243720    -0.20600
C451        C  0.38633933  0.65900918  0.30681480    -0.08700
C452        C  0.39594055  0.61001301  0.30383814     0.30200
F453        F  0.37441259  0.58601106  0.26864648    -0.19200
H454        H  0.43858524  0.54883087  0.33207862     0.18600
H455        H  0.40520367  0.72034950  0.34586239     0.18600
F456        F  0.46536658  0.68391830  0.40815044    -0.19200
C457        C  0.56152631  0.39610927  0.30903783    -0.20600
C458        C  0.57720245  0.42216876  0.34832099    -0.08700
C459        C  0.62781185  0.42168269  0.35876613     0.30200
C460        C  0.66084265  0.39738672  0.33100186    -0.20600
C461        C  0.64495838  0.36924109  0.29445146    -0.08700
C462        C  0.59496324  0.36923628  0.28281331     0.30200
F463        F  0.57807756  0.34174350  0.24798024    -0.19200
H464        H  0.52311494  0.39494003  0.30008574     0.18600
H465        H  0.69897046  0.39754204  0.34152830     0.18600
F466        F  0.64606764  0.44041936  0.39907285    -0.19200
C467        C  0.32475236  0.66072531  0.41364349    -0.20600
C468        C  0.29351995  0.64516260  0.37790573    -0.08700
C469        C  0.29439991  0.59660003  0.36922921     0.30200
C470        C  0.32805058  0.56517258  0.39395029    -0.20600
C471        C  0.36146388  0.58105782  0.42829515    -0.08700
C472        C  0.35903744  0.62977279  0.43730252     0.30200
F473        F  0.39337172  0.64941951  0.46442965    -0.19200
H474        H  0.32568067  0.69802040  0.42046143     0.18600
H475        H  0.32858499  0.52831954  0.38542110     0.18600
F476        F  0.26453628  0.57969836  0.33516884    -0.19200
C477        C  0.37239070  0.30027081  0.62606464    -0.20600
C478        C  0.37453798  0.30476834  0.67736669    -0.08700
C479        C  0.40928779  0.33358313  0.69641031     0.30200
C480        C  0.44063172  0.35782738  0.66488357    -0.20600
C481        C  0.43780713  0.35609996  0.61323429    -0.08700
C482        C  0.40415294  0.32541529  0.59415579     0.30200
F483        F  0.40413589  0.31774732  0.54541857    -0.19200
H484        H  0.34627628  0.27730376  0.61066361     0.18600
H485        H  0.47089828  0.37389863  0.68130431     0.18600
F486        F  0.41486675  0.33687618  0.74566752    -0.19200
C487        C  0.86099151  0.37078256  0.05144977    -0.20600
C488        C  0.91127654  0.36723709  0.06368731    -0.08700
C489        C  0.92608500  0.33203950  0.10015397     0.30200
C490        C  0.89172886  0.30195943  0.12219402    -0.20600
C491        C  0.84161819  0.30765757  0.11018332    -0.08700
C492        C  0.82664005  0.34194484  0.07410216     0.30200
F493        F  0.77875159  0.34955874  0.06235687    -0.19200
H494        H  0.84693055  0.39731639  0.02502599     0.18600
H495        H  0.90426158  0.27593968  0.15094816     0.18600
F496        F  0.97274848  0.32858676  0.11692448    -0.19200
C497        C  0.04184278  0.36873296  0.88227985    -0.20600
C498        C  0.02290245  0.40028222  0.84395179    -0.08700
C499        C  0.02167453  0.38351932  0.79645607     0.30200
C500        C  0.04385306  0.34011563  0.78768742    -0.20600
C501        C  0.07096895  0.31302460  0.82466381    -0.08700
C502        C  0.06332438  0.32418806  0.87322972     0.30200
F503        F  0.07746285  0.29325914  0.91132098    -0.19200
H504        H  0.04186765  0.38004692  0.91902239     0.18600
H505        H  0.04389940  0.33014092  0.74991474     0.18600
F506        F  0.99929776  0.40834360  0.75792171    -0.19200
C507        C  0.79342948  0.42473619  0.16305845    -0.20600
C508        C  0.82534259  0.39236423  0.18981936    -0.08700
C509        C  0.87570156  0.39746651  0.18119832     0.30200
C510        C  0.89203050  0.42863661  0.14134542    -0.20600
C511        C  0.85843615  0.45272289  0.10771535    -0.08700
C512        C  0.80890933  0.45308828  0.12233859     0.30200
F513        F  0.77440935  0.48051487  0.09734523    -0.19200
H514        H  0.75463513  0.42550224  0.17090922     0.18600
H515        H  0.93071567  0.42972921  0.13361480     0.18600
F516        F  0.90869971  0.36984648  0.20802241    -0.19200
C517        C  0.09224721  0.56670479  0.17328997    -0.20600
C518        C  0.06291002  0.58110301  0.13204603    -0.08700
C519        C  0.05257072  0.63034473  0.12236689     0.30200
C520        C  0.07276841  0.66346728  0.15128324    -0.20600
C521        C  0.10539567  0.64889727  0.18921613    -0.08700
C522        C  0.11315423  0.59998980  0.20157908     0.30200
F523        F  0.14370672  0.58400827  0.23878451    -0.19200
H524        H  0.10154119  0.52972592  0.18251206     0.18600
H525        H  0.06613412  0.70085127  0.14099853     0.18600
F526        F  0.02706593  0.64724772  0.08181747    -0.19200
C527        C  0.16045004  0.35663292  0.90714726    -0.20600
C528        C  0.18718819  0.37509992  0.86624270    -0.08700
C529        C  0.20686572  0.41984282  0.87013234     0.30200
C530        C  0.18855840  0.44760476  0.90727254    -0.20600
C531        C  0.14179362  0.43728245  0.92790392    -0.08700
C532        C  0.13761528  0.38814267  0.93866327     0.30200
F533        F  0.10870355  0.37132578  0.97614104    -0.19200
H534        H  0.15635502  0.31880155  0.91328915     0.18600
H535        H  0.20748797  0.47915128  0.91424273     0.18600
F536        F  0.24265653  0.43609038  0.83929073    -0.19200
C537        C  0.20303911  0.58956851  0.12131110    -0.20600
C538        C  0.19480370  0.63878243  0.11139835    -0.08700
C539        C  0.15985432  0.65440796  0.07561949     0.30200
C540        C  0.13215211  0.62218985  0.05297906    -0.20600
C541        C  0.14020774  0.57305605  0.06131062    -0.08700
C542        C  0.17632286  0.55682964  0.09624863     0.30200
F543        F  0.18431778  0.50966374  0.10760725    -0.19200
H544        H  0.22918880  0.57644999  0.14920098     0.18600
H545        H  0.10328209  0.63660163  0.02892945     0.18600
F546        F  0.14989737  0.70119910  0.06374689    -0.19200
C547        C  0.36583237  0.88572329  0.06895768    -0.20600
C548        C  0.40622668  0.85573768  0.05810280    -0.08700
C549        C  0.39909522  0.80641641  0.06150044     0.30200
C550        C  0.35572479  0.78812125  0.07932737    -0.20600
C551        C  0.31727933  0.81736096  0.09532201    -0.08700
C552        C  0.32172859  0.86682344  0.08778708     0.30200
F553        F  0.28456720  0.89661313  0.09971719    -0.19200
H554        H  0.36922826  0.92383895  0.06465838     0.18600
H555        H  0.35347073  0.74980063  0.08217787     0.18600
F556        F  0.43288983  0.77496381  0.04578474    -0.19200
C557        C  0.41790563  0.83138916  0.17862464    -0.20600
C558        C  0.37259650  0.84406124  0.19627996    -0.08700
C559        C  0.35925593  0.89273505  0.19691212     0.30200
C560        C  0.38858959  0.92724128  0.17301291    -0.20600
C561        C  0.43173666  0.91379995  0.14878245    -0.08700
C562        C  0.44667586  0.86520183  0.15497969     0.30200
F563        F  0.48476490  0.84716397  0.13160153    -0.19200
H564        H  0.42956292  0.79435708  0.17905923     0.18600
H565        H  0.37624439  0.96406142  0.17127285     0.18600
F566        F  0.31666246  0.90684003  0.21766763    -0.19200
C567        C  0.35941704  0.18189319  0.91779766    -0.20600
C568        C  0.37002929  0.20364679  0.87095039    -0.08700
C569        C  0.41909614  0.20647468  0.85712648     0.30200
C570        C  0.45364716  0.17783663  0.88339669    -0.20600
C571        C  0.43801033  0.14079674  0.91635244    -0.08700
C572        C  0.39432205  0.15003961  0.94081872     0.30200
F573        F  0.38594614  0.12769737  0.98567784    -0.19200
H574        H  0.32376670  0.18643727  0.93413347     0.18600
H575        H  0.49160523  0.18126690  0.87460880     0.18600
F576        F  0.43302237  0.23482647  0.81738791    -0.19200
C577        C  0.33895520  0.04945845  0.87394377    -0.20600
C578        C  0.34183716  0.05442628  0.92479820    -0.08700
C579        C  0.30520151  0.08406395  0.94481145     0.30200
C580        C  0.27308242  0.11252115  0.91357969    -0.20600
C581        C  0.27610141  0.11124554  0.86200328    -0.08700
C582        C  0.30726856  0.07667975  0.84315838     0.30200
F583        F  0.30907910  0.06993495  0.79418920    -0.19200
H584        H  0.36359683  0.02620923  0.85605599     0.18600
H585        H  0.24812309  0.13749791  0.92961092     0.18600
F586        F  0.30226730  0.08785855  0.99421997    -0.19200
C587        C  0.56996360  0.15973100  0.11085553    -0.20600
C588        C  0.58450143  0.13514864  0.06970001    -0.08700
C589        C  0.63348366  0.14085935  0.05327235     0.30200
C590        C  0.66593688  0.16836140  0.07710766    -0.20600
C591        C  0.65169220  0.19078004  0.11873586    -0.08700
C592        C  0.60277922  0.18738492  0.13491075     0.30200
F593        F  0.58707350  0.20852635  0.17557072    -0.19200
H594        H  0.53319993  0.15662555  0.12520380     0.18600
H595        H  0.70336311  0.16997302  0.06421225     0.18600
F596        F  0.65339248  0.11581492  0.01808392    -0.19200
C597        C  0.72331450  0.07136011  0.14267252    -0.20600
C598        C  0.69455781  0.09273488  0.17817571    -0.08700
C599        C  0.64411832  0.08449000  0.17869270     0.30200
C600        C  0.62261975  0.06130269  0.14022956    -0.20600
C601        C  0.65083272  0.04533448  0.10071348    -0.08700
C602        C  0.70228044  0.04751602  0.10514026     0.30200
F603        F  0.73312949  0.02653901  0.07371520    -0.19200
H604        H  0.76262232  0.07460980  0.14256723     0.18600
H605        H  0.58341002  0.05785057  0.13993484     0.18600
F606        F  0.61516635  0.10132078  0.21441855    -0.19200
C607        C  0.83937102  0.91103494  0.31552956    -0.20600
C608        C  0.81666844  0.87484087  0.34307232    -0.08700
C609        C  0.81523095  0.87509927  0.39503980     0.30200
C610        C  0.83966927  0.91007169  0.41868726    -0.20600
C611        C  0.86536895  0.94484142  0.39082154    -0.08700
C612        C  0.86093666  0.94651816  0.33869834     0.30200
F613        F  0.87299299  0.98518670  0.30974174    -0.19200
H614        H  0.83836495  0.91351548  0.27556072     0.18600
H615        H  0.83771654  0.91066003  0.45844552     0.18600
F616        F  0.79128198  0.84132192  0.42292751    -0.19200
C617        C  0.67809302  0.88278477  0.07376624    -0.20600
C618        C  0.65097443  0.92300208  0.08751427    -0.08700
C619        C  0.65481706  0.93410099  0.13745823     0.30200
C620        C  0.68136203  0.90525242  0.17195313    -0.20600
C621        C  0.70521443  0.86384351  0.15891709    -0.08700
C622        C  0.70506708  0.85367875  0.10876407     0.30200
F623        F  0.72885413  0.81449427  0.09375143    -0.19200
H624        H  0.67711217  0.87287507  0.03605070     0.18600
H625        H  0.68070210  0.91424594  0.21003905     0.18600
F626        F  0.62786022  0.96879180  0.15612610    -0.19200
C627        C  0.89931150  0.67266017  0.13146628    -0.20600
C628        C  0.89640182  0.66843985  0.18333401    -0.08700
C629        C  0.92510184  0.63239040  0.20898731     0.30200
C630        C  0.95015512  0.59832912  0.18379967    -0.20600
C631        C  0.94791110  0.59837460  0.13213326    -0.08700
C632        C  0.92596543  0.63850586  0.10597826     0.30200
F633        F  0.92645262  0.64237655  0.05592721    -0.19200
H634        H  0.87908220  0.70081891  0.11065258     0.18600
H635        H  0.97013031  0.57073737  0.20561538     0.18600
F636        F  0.92677798  0.62753391  0.25904109    -0.19200
C637        C  0.95777739  0.84917163  0.33687366    -0.20600
C638        C  0.95083870  0.86753386  0.38343115    -0.08700
C639        C  0.92465382  0.83863408  0.41868711     0.30200
C640        C  0.89854711  0.79863859  0.40394068    -0.20600
C641        C  0.90193340  0.78470272  0.35500366    -0.08700
C642        C  0.93740374  0.80717550  0.32459635     0.30200
F643        F  0.94911142  0.79126405  0.27992373    -0.19200
H644        H  0.97955244  0.86755726  0.30868781     0.18600
H645        H  0.87326017  0.78119562  0.42946545     0.18600
F646        F  0.91987558  0.85173815  0.46551608    -0.19200
C647        C  0.69990209  0.57114188  0.40533464    -0.20600
C648        C  0.71548024  0.57868836  0.35618680    -0.08700
C649        C  0.69887111  0.54726739  0.32234139     0.30200
C650        C  0.65442864  0.52602985  0.33073585    -0.20600
C651        C  0.63070648  0.52862588  0.37637503    -0.08700
C652        C  0.65835140  0.54349932  0.41584373     0.30200
F653        F  0.64258003  0.53527174  0.46285704    -0.19200
H654        H  0.71729143  0.58878027  0.43425463     0.18600
H655        H  0.63768804  0.50925390  0.30065360     0.18600
F656        F  0.71898573  0.54644615  0.27663301    -0.19200
C657        C  0.82136218  0.58071354  0.17367523    -0.20600
C658        C  0.78988286  0.61971888  0.16257797    -0.08700
C659        C  0.78402251  0.63483987  0.11210975     0.30200
C660        C  0.81162025  0.61302060  0.07501804    -0.20600
C661        C  0.84567024  0.57479987  0.08638105    -0.08700
C662        C  0.84840774  0.55911605  0.13728693     0.30200
F663        F  0.87994301  0.52498531  0.15448096    -0.19200
H664        H  0.82710882  0.56762692  0.21173690     0.18600
H665        H  0.80675577  0.62674063  0.03708510     0.18600
F666        F  0.75270745  0.67145937  0.09845621    -0.19200
C667        C  0.57913025  0.84938818  0.23332946    -0.20600
C668        C  0.60352467  0.81465104  0.20723091    -0.08700
C669        C  0.59976331  0.81820978  0.15546912     0.30200
C670        C  0.57750703  0.85859830  0.13068660    -0.20600
C671        C  0.55773720  0.89624193  0.15662802    -0.08700
C672        C  0.55612545  0.88915904  0.20884252     0.30200
F673        F  0.53157050  0.91970102  0.23693208    -0.19200
H674        H  0.57916541  0.84672008  0.27328484     0.18600
H675        H  0.57635735  0.86100696  0.09080385     0.18600
F676        F  0.62025813  0.78429473  0.12853471    -0.19200
C677        C  0.66062579  0.67004996  0.44426431    -0.20600
C678        C  0.63809231  0.70211413  0.40857542    -0.08700
C679        C  0.58859642  0.71428688  0.41754382     0.30200
C680        C  0.56195414  0.68672276  0.45386897    -0.20600
C681        C  0.58011337  0.64064376  0.47007208    -0.08700
C682        C  0.63151540  0.64072155  0.47663893     0.30200
F683        F  0.65348382  0.60905210  0.50991503    -0.19200
H684        H  0.69994638  0.66558242  0.44474382     0.18600
H685        H  0.52482512  0.69666488  0.46202643     0.18600
F686        F  0.56588779  0.75058367  0.39043642    -0.19200
C687        C  0.84170993  0.40021732  0.78683305    -0.20600
C688        C  0.86308915  0.35401661  0.79106348    -0.08700
C689        C  0.90266884  0.34478483  0.82237474     0.30200
C690        C  0.91939220  0.37999001  0.84981767    -0.20600
C691        C  0.90026583  0.42701722  0.84620549    -0.08700
C692        C  0.85996037  0.43645180  0.81408712     0.30200
F693        F  0.83746295  0.47994759  0.81001830    -0.19200
H694        H  0.80998464  0.40794303  0.76362523     0.18600
H695        H  0.94728776  0.36871424  0.87549659     0.18600
F696        F  0.92501417  0.30118092  0.82786584    -0.19200
C697        C  0.88728260  0.10649108  0.71834359    -0.20600
C698        C  0.89092266  0.15511854  0.70473328    -0.08700
C699        C  0.92131313  0.16941347  0.66517706     0.30200
C700        C  0.94274333  0.13556747  0.63655978    -0.20600
C701        C  0.93713648  0.08634874  0.64770480    -0.08700
C702        C  0.90967804  0.07248549  0.69038583     0.30200
F703        F  0.89947461  0.02639244  0.70243990    -0.19200
H704        H  0.86397826  0.09442627  0.74869067     0.18600
H705        H  0.96178674  0.14844230  0.60369682     0.18600
F706        F  0.92749921  0.21607608  0.65154428    -0.19200
C707        C  0.63602052  0.10092728  0.92480072    -0.20600
C708        C  0.59971739  0.13397024  0.93916775    -0.08700
C709        C  0.61249379  0.18177376  0.93970235     0.30200
C710        C  0.65806183  0.19554886  0.92492561    -0.20600
C711        C  0.69083339  0.16488337  0.90165826    -0.08700
C712        C  0.68146002  0.11628277  0.90560107     0.30200
F713        F  0.71462225  0.08435096  0.88959261    -0.19200
H714        H  0.62878779  0.06336860  0.92795844     0.18600
H715        H  0.66553550  0.23269886  0.92811884     0.18600
F716        F  0.58324300  0.21577781  0.95802450    -0.19200
C717        C  0.80545649  0.37527270  0.90393542    -0.20600
C718        C  0.80796101  0.32587542  0.90179184    -0.08700
C719        C  0.84077650  0.29908482  0.93345152     0.30200
C720        C  0.87873122  0.32111676  0.95457890    -0.20600
C721        C  0.88288244  0.37052673  0.94797217    -0.08700
C722        C  0.84189562  0.39760613  0.92938302     0.30200
F723        F  0.84089301  0.44562714  0.92904365    -0.19200
H724        H  0.77842960  0.39659497  0.88266896     0.18600
H725        H  0.90555986  0.29889865  0.97509046     0.18600
F726        F  0.83989229  0.25092681  0.93990709    -0.19200
C727        C  0.56344866  0.16639804  0.80476895    -0.20600
C728        C  0.61289469  0.15527709  0.80540387    -0.08700
C729        C  0.62722669  0.10634371  0.81205276     0.30200
C730        C  0.59440972  0.07274554  0.83270017    -0.20600
C731        C  0.54594852  0.08660028  0.84109307    -0.08700
C732        C  0.53038039  0.13071409  0.81641269     0.30200
F733        F  0.48408631  0.13913089  0.80015638    -0.19200
H734        H  0.55030274  0.20152068  0.79143321     0.18600
H735        H  0.60721101  0.03688100  0.84344421     0.18600
F736        F  0.67345899  0.09147308  0.80189584    -0.19200
C737        C  0.57995390  0.36671254  0.72234588    -0.20600
C738        C  0.62758506  0.35841861  0.70598589    -0.08700
C739        C  0.64913568  0.39564236  0.67655228     0.30200
C740        C  0.61888850  0.42966637  0.64977646    -0.20600
C741        C  0.56797293  0.42564232  0.65309873    -0.08700
C742        C  0.55396283  0.40643785  0.70099116     0.30200
F743        F  0.53140658  0.43410185  0.73315155    -0.19200
H744        H  0.56627363  0.34712264  0.75499986     0.18600
H745        H  0.63472501  0.45365604  0.62170233     0.18600
F746        F  0.69832419  0.39882727  0.67356171    -0.19200
C747        C  0.67902965  0.35780806  0.57588749    -0.20600
C748        C  0.68362287  0.30919107  0.59010464    -0.08700
C749        C  0.65386858  0.27764113  0.56615692     0.30200
C750        C  0.61453017  0.29458337  0.53795400    -0.20600
C751        C  0.60371565  0.34329636  0.53179329    -0.08700
C752        C  0.63883508  0.37507411  0.54714884     0.30200
F753        F  0.63323121  0.42249569  0.53583484    -0.19200
H754        H  0.70458989  0.38249579  0.58895787     0.18600
H755        H  0.59163266  0.26886803  0.52245813     0.18600
F756        F  0.66020566  0.22968944  0.57253087    -0.19200
C757        C  0.82118880  0.05421434  0.62528329    -0.20600
C758        C  0.85556331  0.06828173  0.58847868    -0.08700
C759        C  0.85929918  0.11754313  0.57578242     0.30200
C760        C  0.82893556  0.15042712  0.59635216    -0.20600
C761        C  0.79693428  0.13673627  0.63439597    -0.08700
C762        C  0.79287779  0.08811885  0.64879829     0.30200
F763        F  0.76351656  0.07344375  0.68684042    -0.19200
H764        H  0.81749533  0.01709485  0.63715349     0.18600
H765        H  0.83401245  0.18754413  0.58501339     0.18600
F766        F  0.89616307  0.13524694  0.54743120    -0.19200
C767        C  0.41477280  0.80433474  0.86275726    -0.20600
C768        C  0.36432746  0.80716844  0.87388283    -0.08700
C769        C  0.35020667  0.82760409  0.91690714     0.30200
C770        C  0.38469296  0.84790167  0.94551402    -0.20600
C771        C  0.43401733  0.85229805  0.93157942    -0.08700
C772        C  0.44931459  0.82703482  0.89097047     0.30200
F773        F  0.49684999  0.82638095  0.87689231    -0.19200
H774        H  0.42717497  0.78720850  0.83044265     0.18600
H775        H  0.37090304  0.86192009  0.97776309     0.18600
F776        F  0.30272078  0.82896636  0.93132955    -0.19200
C777        C  0.17498689  0.63914637  0.95090844    -0.20600
C778        C  0.12727780  0.62488690  0.94002165    -0.08700
C779        C  0.09896680  0.65715436  0.90891740     0.30200
C780        C  0.12115930  0.69661814  0.88246263    -0.20600
C781        C  0.17142430  0.70560257  0.88842977    -0.08700
C782        C  0.19610437  0.67871856  0.92676780     0.30200
F783        F  0.24264089  0.68842962  0.93899577    -0.19200
H784        H  0.19776125  0.61797052  0.97704192     0.18600
H785        H  0.10009833  0.71756541  0.85468122     0.18600
F786        F  0.05144170  0.64812878  0.90044332    -0.19200
C787        C  0.19603862  0.97236324  0.61301006    -0.20600
C788        C  0.14783892  0.96982790  0.59678733    -0.08700
C789        C  0.11376162  0.94670598  0.62885994     0.30200
C790        C  0.12942167  0.92039255  0.67190829    -0.20600
C791        C  0.17923764  0.91536509  0.68176349    -0.08700
C792        C  0.21093851  0.94747934  0.65628994     0.30200
F793        F  0.25831519  0.95069228  0.67014172    -0.19200
H794        H  0.22235683  0.99395363  0.59271084     0.18600
H795        H  0.10321700  0.90179581  0.69516262     0.18600
F796        F  0.06579974  0.94814222  0.61730258    -0.19200
C797        C  0.41376153  0.92346664  0.84262777    -0.20600
C798        C  0.37935830  0.94089283  0.87676820    -0.08700
C799        C  0.33004128  0.94210063  0.86207974     0.30200
C800        C  0.31597242  0.92474111  0.81832067    -0.20600
C801        C  0.34766992  0.89713926  0.78995118    -0.08700
C802        C  0.39804602  0.89969690  0.80057878     0.30200
F803        F  0.43147540  0.87749799  0.77276107    -0.19200
H804        H  0.45235702  0.92417228  0.85091232     0.18600
H805        H  0.27742528  0.92931541  0.80990231     0.18600
F806        F  0.29399476  0.96098734  0.88959640    -0.19200
C807        C  0.30061221  0.65868817  0.57573961    -0.20600
C808        C  0.33168016  0.69066379  0.59698056    -0.08700
C809        C  0.38230848  0.68432041  0.58926634     0.30200
C810        C  0.40068760  0.64407183  0.56580855    -0.20600
C811        C  0.36912056  0.60879996  0.55070503    -0.08700
C812        C  0.31844819  0.61898689  0.55321899     0.30200
F813        F  0.28512507  0.59098897  0.53373722    -0.19200
H814        H  0.26130138  0.66299494  0.57813635     0.18600
H815        H  0.43979541  0.63899074  0.56193382     0.18600
F816        F  0.41403802  0.71529919  0.60637756    -0.19200
C817        C  0.13004906  0.78885892  0.56630638    -0.20600
C818        C  0.13874298  0.80209911  0.61433805    -0.08700
C819        C  0.09904529  0.82490031  0.63698930     0.30200
C820        C  0.06349323  0.85044132  0.60719432    -0.20600
C821        C  0.06860441  0.85321432  0.55546782    -0.08700
C822        C  0.08903940  0.80965709  0.54058678     0.30200
F823        F  0.06820618  0.78694402  0.50397369    -0.19200
H824        H  0.15218841  0.76135900  0.55071998     0.18600
H825        H  0.03469665  0.87045006  0.62422566     0.18600
F826        F  0.09434355  0.82160732  0.68679001    -0.19200
C827        C  0.34148413  0.59053755  0.67622428    -0.20600
C828        C  0.35978737  0.62897936  0.69845523    -0.08700
C829        C  0.41067551  0.63599631  0.69660338     0.30200
C830        C  0.44153783  0.60568780  0.67056313    -0.20600
C831        C  0.42246953  0.56812367  0.64535670    -0.08700
C832        C  0.37147544  0.56148743  0.64983674     0.30200
F833        F  0.34770143  0.53045595  0.62476811    -0.19200
H834        H  0.30264522  0.58410591  0.67669002     0.18600
H835        H  0.48038418  0.61186036  0.66951398     0.18600
F836        F  0.43039343  0.67298819  0.71802154    -0.19200
C837        C  0.15165906  0.56005702  0.85160446    -0.20600
C838        C  0.10080639  0.56722047  0.84685678    -0.08700
C839        C  0.08372944  0.60410174  0.81350276     0.30200
C840        C  0.11707020  0.63561898  0.79106777    -0.20600
C841        C  0.16766073  0.62968669  0.80122557    -0.08700
C842        C  0.18458054  0.59099058  0.83095709     0.30200
F843        F  0.23297130  0.58116340  0.83822845    -0.19200
H844        H  0.16615258  0.52752812  0.86728156     0.18600
H845        H  0.10338132  0.66460908  0.76620145     0.18600
F846        F  0.03573390  0.60811627  0.80115452    -0.19200
loop_ 
_geom_bond_atom_site_label_1 
_geom_bond_atom_site_label_2 
_geom_bond_distance 
_geom_bond_site_symmetry_2 
_ccdc_geom_bond_type 
O1            C9   1.254       .  A
O1          Co21   1.948       .  S
O2           C10   1.299       .  A
O2          Co22   2.094       .  S
O3           C11   1.260       .  A
O3          Co23   1.997       .  S
O4           C12   1.282       .  A
O4          Co24   2.061       .  S
O5           C11   1.278       .  A
O5          Co22   2.046       .  S
O6           C12   1.253       .  A
O6          Co21   1.946       .  S
O7           C10   1.261       .  A
O7          Co24   1.967       .  S
O8            C9   1.281       .  A
O8          Co23   2.052       .  S
C9          C828   1.483       .  S
C10         C801   1.531       .  S
C11         C808   1.514       .  S
C12         C768   1.487       .  S
O13          C26   1.276       .  A
O13         Co21   2.036       .  S
O14          C27   1.298       .  A
O14         Co22   2.125       .  S
O15          C28   1.236       .  A
O15         Co23   1.901       .  S
O16          C29   1.284       .  A
O16         Co24   2.023       .  S
O17          C29   1.263       .  A
O17         Co22   1.947       .  S
O18          C28   1.269       .  A
O18         Co21   2.024       .  S
O19          C26   1.277       .  A
O19         Co24   2.026       .  S
O20          C27   1.246       .  A
O20         Co23   1.919       .  S
Co21         O25   2.098       .  S
Co22         O25   2.103       .  S
Co23         O25   2.071       .  S
Co24         O25   2.105       .  S
C26         C781   1.520       .  S
C27         C818   1.490       .  S
C28         C841   1.450       .  S
C29         C791   1.482       .  S
O30          C38   1.269       .  A
O30         Co50   2.022       .  S
O31          C39   1.269       .  A
O31         Co51   1.998       .  S
O32          C40   1.293       .  A
O32         Co52   2.105       .  S
O33          C41   1.289       .  A
O33         Co53   2.050       .  S
O34          C40   1.242       .  A
O34         Co51   1.905       .  S
O35          C41   1.262       .  A
O35         Co50   1.934       .  S
O36          C39   1.256       .  A
O36         Co53   1.961       .  S
O37          C38   1.247       .  A
O37         Co52   1.948       .  S
C38         C748   1.485       .  S
C39         C718   1.472       .  S
C40         C738   1.471       .  S
C41         C688   1.471       .  S
O42          C55   1.271       .  A
O42         Co50   2.028       .  S
O43          C56   1.281       .  A
O43         Co51   2.097       .  S
O44          C57   1.264       .  A
O44         Co52   1.961       .  S
O45          C58   1.283       .  A
O45         Co53   2.041       .  S
O46          C58   1.257       .  A
O46         Co51   1.953       .  S
O47          C57   1.277       .  A
O47         Co50   2.019       .  S
O48          C55   1.262       .  A
O48         Co53   1.948       .  S
O49          C56   1.229       .  A
O49         Co52   1.893       .  S
Co50         O54   2.110       .  S
Co51         O54   2.105       .  S
Co52         O54   2.058       .  S
Co53         O54   2.083       .  S
C55         C698   1.477       .  S
C56         C728   1.481       .  S
C57         C761   1.473       .  S
C58         C711   1.489       .  S
O59          C67   1.261       .  A
O59         Co79   2.003       .  S
O60          C68   1.269       .  A
O60         Co80   2.012       .  S
O61          C69   1.292       .  A
O61         Co81   2.078       .  S
O62          C70   1.296       .  A
O62         Co82   2.079       .  S
O63          C69   1.264       .  A
O63         Co80   1.946       .  S
O64          C70   1.279       .  A
O64         Co79   1.997       .  S
O65          C68   1.258       .  A
O65         Co82   1.995       .  S
O66          C67   1.257       .  A
O66         Co81   2.010       .  S
C67         C668   1.496       .  S
C68         C628   1.496       .  S
C69         C621   1.488       .  S
C70         C658   1.516       .  S
O71          C84   1.259       .  A
O71         Co79   1.951       .  S
O72          C85   1.266       .  A
O72         Co80   2.012       .  S
O73          C86   1.262       .  A
O73         Co81   1.969       .  S
O74          C87   1.289       .  A
O74         Co82   2.044       .  S
O75          C87   1.278       .  A
O75         Co80   2.013       .  S
O76          C86   1.297       .  A
O76         Co79   2.114       .  S
O77          C84   1.268       .  A
O77         Co82   2.010       .  S
O78          C85   1.243       .  A
O78         Co81   1.926       .  S
Co79         O83   2.089       .  S
Co80         O83   2.106       .  S
Co81         O83   2.093       .  S
Co82         O83   2.105       .  S
C84         C648   1.486       .  S
C85         C608   1.457       .  S
C86         C678   1.514       .  S
C87         C641   1.518       .  S
C88          C89   1.463   1_564  A
C88          C93   1.455       .  A
C88          N94   1.508       .  S
C89          C90   1.477       .  A
C89         N101   1.488   1_556  S
C90          C91   1.465   1_545  A
C90         N115   1.493       .  S
C91          C92   1.470   1_556  A
C91         N108   1.511       .  S
C92          C93   1.477       .  A
C92         N129   1.493   1_554  S
C93         N122   1.503       .  S
N94          C98   1.364   1_565  A
N94          C95   1.376       .  A
C95         C618   1.526       .  S
C95          C96   1.385       .  A
C96          C97   1.364   1_565  A
C96          H99   1.082   1_554  S
C97          C98   1.390       .  A
C97         H100   1.081       .  S
C98         C601   1.525       .  S
N101        C105   1.352   1_554  A
N101        C102   1.374       .  A
C102        C588   1.525       .  S
C102        C103   1.381       .  A
C103        C104   1.359   1_554  A
C103        H106   1.083       .  S
C104        C105   1.388       .  A
C104        H107   1.077       .  S
C105        C708   1.487       .  S
N108        C112   1.370       .  A
N108        C109   1.389   1_565  A
C109        C578   1.533       .  S
C109        C110   1.375   1_545  A
C110        C111   1.359       .  A
C110        H113   1.082   1_566  S
C111        C112   1.398       .  A
C111        H114   1.081       .  S
C112        C798   1.533       .  S
N115        C119   1.385       .  A
N115        C116   1.362       .  A
C116        C571   1.500       .  S
C116        C117   1.379       .  A
C117        C118   1.365       .  A
C117        H120   1.083       .  S
C118        C119   1.377       .  A
C118        H121   1.084       .  S
C119        C731   1.523       .  S
N122        C126   1.372       .  A
N122        C123   1.367       .  A
C123        C671   1.521       .  S
C123        C124   1.390       .  A
C124        C125   1.365       .  A
C124        H127   1.082       .  S
C125        C126   1.387       .  A
C125        H128   1.083   1_565  S
C126        C561   1.516       .  S
N129        C133   1.381       .  A
N129        C130   1.351   1_556  A
C130        C548   1.507       .  S
C130        C131   1.394       .  A
C131        C132   1.365   1_554  A
C131        H134   1.081       .  S
C132        C133   1.382       .  A
C132        H135   1.082       .  S
C133        C771   1.530       .  S
C136        C137   1.460   1_554  A
C136        C141   1.475       .  A
C136        N163   1.539       .  S
C137        C138   1.471       .  A
C137        N177   1.483       .  S
C138        C139   1.490   1_655  A
C138        N170   1.510       .  S
C139        C140   1.491       .  A
C139        N149   1.520       .  S
C140        C141   1.503   1_456  A
C140        N142   1.505       .  S
C141        N156   1.498   1_655  S
N142        C146   1.377   1_556  A
N142        C143   1.380       .  A
C143        C778   1.540       .  S
C143        C144   1.392       .  A
C144        C145   1.356   1_556  A
C144        H147   1.079       .  S
C145        C146   1.373       .  A
C145        H148   1.082       .  S
C146        C541   1.512       .  S
N149        C153   1.391       .  A
N149        C150   1.391       .  A
C150        C838   1.477       .  S
C150        C151   1.387       .  A
C151        C152   1.339       .  A
C151        H154   1.087       .  S
C152        C153   1.393       .  A
C152        H155   1.075       .  S
C153        C531   1.518       .  S
N156        C160   1.365       .  A
N156        C157   1.365   1_455  A
C157        C631   1.514       .  S
C157        C158   1.400       .  A
C158        C159   1.358   1_655  A
C158        H161   1.080       .  S
C159        C160   1.385       .  A
C159        H162   1.081       .  S
C160        C518   1.521       .  S
N163        C167   1.364       .  A
N163        C164   1.393       .  A
C164        C661   1.567       .  S
C164        C165   1.384       .  A
C165        C166   1.366       .  A
C165        H168   1.082   1_554  S
C166        C167   1.392       .  A
C166        H169   1.082       .  S
C167        C511   1.535       .  S
N170        C174   1.354   1_655  A
N170        C171   1.383       .  A
C171        C691   1.542       .  S
C171        C172   1.382       .  A
C172        C173   1.361       .  A
C172        H175   1.081       .  S
C173        C174   1.399   1_655  A
C173        H176   1.081       .  S
C174        C498   1.521       .  S
N177        C181   1.352       .  A
N177        C178   1.369   1_556  A
C178        C488   1.515       .  S
C178        C179   1.386       .  A
C179        C180   1.361   1_554  A
C179        H182   1.080   1_655  S
C180        C181   1.389       .  A
C180        H183   1.083       .  S
C181        C721   1.497       .  S
C184        C185   1.490       .  A
C184        C189   1.520       .  A
C184        N190   1.527       .  S
C185        C186   1.484       .  A
C185        N218   1.511       .  S
C186        C187   1.462       .  A
C186        N197   1.499       .  S
C187        C188   1.500       .  A
C187        N211   1.527       .  S
C188        C189   1.487       .  A
C188        N204   1.500       .  S
C189        N225   1.526       .  S
N190        C194   1.392       .  A
N190        C191   1.389       .  A
C191        C741   1.511       .  S
C191        C192   1.390       .  A
C192        C193   1.329       .  A
C192        H195   1.074       .  S
C193        C194   1.386       .  A
C193        H196   1.087       .  S
C194        C481   1.471       .  S
N197        C201   1.367       .  A
N197        C198   1.376       .  A
C198        C471   1.522       .  S
C198        C199   1.384       .  A
C199        C200   1.361       .  A
C199        H202   1.082       .  S
C200        C201   1.400       .  A
C200        H203   1.079       .  S
C201        C811   1.527       .  S
N204        C208   1.374       .  A
N204        C205   1.357       .  A
C205        C651   1.506       .  S
C205        C206   1.397       .  A
C206        C207   1.352       .  A
C206        H209   1.083       .  S
C207        C208   1.377       .  A
C207        H210   1.082       .  S
C208        C458   1.520       .  S
N211        C215   1.404       .  A
N211        C212   1.390       .  A
C212        C448   1.468       .  S
C212        C213   1.373       .  A
C213        C214   1.324       .  A
C213        H216   1.085       .  S
C214        C215   1.392       .  A
C214        H217   1.074       .  S
C215        C681   1.530       .  S
N218        C222   1.368       .  A
N218        C219   1.382       .  A
C219        C831   1.529       .  S
C219        C220   1.376       .  A
C220        C221   1.360       .  A
C220        H223   1.084       .  S
C221        C222   1.382       .  A
C221        H224   1.077       .  S
C222        C441   1.527       .  S
N225        C229   1.396       .  A
N225        C226   1.344       .  A
C226        C751   1.500       .  S
C226        C227   1.406       .  A
C227        C228   1.353       .  A
C227        H230   1.082       .  S
C228        C229   1.375       .  A
C228        H231   1.082       .  S
C229        C431   1.571       .  S
C232        C233   1.479       .  A
C232        C237   1.518   1_565  A
C232        N252   1.519       .  S
C233        C234   1.500   1_455  A
C233        N273   1.516       .  S
C234        C235   1.510   1_565  A
C234        N266   1.529   1_565  S
C235        C236   1.476       .  A
C235        N259   1.501       .  S
C236        C237   1.478   1_655  A
C236        N238   1.529       .  S
C237        N245   1.514       .  S
N238        C242   1.379       .  A
N238        C239   1.370   1_655  A
C239        C421   1.545       .  S
C239        C240   1.405       .  A
C240        C241   1.349   1_455  A
C240        H243   1.080       .  S
C241        C242   1.373       .  A
C241        H244   1.078   1_545  S
C242        C701   1.538       .  S
N245        C249   1.340   1_545  A
N245        C246   1.391       .  A
C246        C408   1.563       .  S
C246        C247   1.382       .  A
C247        C248   1.360       .  A
C247        H250   1.082       .  S
C248        C249   1.396   1_545  A
C248        H251   1.082       .  S
C249        C788   1.493       .  S
N252        C256   1.393       .  A
N252        C253   1.392       .  A
C253        C821   1.523       .  S
C253        C254   1.391       .  A
C254        C255   1.343       .  A
C254        H257   1.074       .  S
C255        C256   1.388       .  A
C255        H258   1.087       .  S
C256        C398   1.485       .  S
N259        C263   1.379       .  A
N259        C260   1.348       .  A
C260        C388   1.506       .  S
C260        C261   1.402       .  A
C261        C262   1.355       .  A
C261        H264   1.082       .  S
C262        C263   1.377       .  A
C262        H265   1.082   1_545  S
C263        C758   1.534       .  S
N266        C270   1.397   1_545  A
N266        C267   1.392       .  A
C267        C378   1.516       .  S
C267        C268   1.390       .  A
C268        C269   1.328       .  A
C268        H271   1.073       .  S
C269        C270   1.381   1_545  A
C269        H272   1.086       .  S
C270        C611   1.479       .  S
N273        C277   1.377   1_455  A
N273        C274   1.381       .  A
C274        C368   1.536       .  S
C274        C275   1.370       .  A
C275        C276   1.362   1_455  A
C275        H278   1.081       .  S
C276        C277   1.391       .  A
C276        H279   1.076       .  S
C277        C638   1.540       .  S
O280        C288   1.243       .  A
O280       Co300   1.915       .  S
O281        C289   1.271       .  A
O281       Co301   2.003       .  S
O282        C290   1.257       .  A
O282       Co302   1.967       .  S
O283        C291   1.269       .  A
O283       Co303   2.019       .  S
O284        C290   1.297       .  A
O284       Co301   2.094       .  S
O285        C291   1.247       .  A
O285       Co300   1.925       .  S
O286        C289   1.274       .  A
O286       Co303   2.028       .  S
O287        C288   1.289       .  A
O287       Co302   2.070       .  S
C288        C411   1.472       .  S
C289        C438   1.503       .  S
C290        C418   1.529       .  S
C291        C478   1.459       .  S
O292        C305   1.272       .  A
O292       Co300   2.043       .  S
O293        C306   1.259       .  A
O293       Co301   1.944       .  S
O294        C307   1.272       .  A
O294       Co302   2.002       .  S
O295        C308   1.242       .  A
O295       Co303   1.904       .  S
O296        C308   1.295       .  A
O296       Co301   2.109       .  S
O297        C307   1.270       .  A
O297       Co300   2.009       .  S
O298        C305   1.251       .  A
O298       Co303   1.961       .  S
O299        C306   1.292       .  A
O299       Co302   2.057       .  S
Co300       O304   2.091       .  S
Co301       O304   2.109       .  S
Co302       O304   2.097       .  S
Co303       O304   2.076       .  S
C305        C568   1.473       .  S
C306        C501   1.501       .  S
C307        C581   1.494       .  S
C308        C528   1.471       .  S
O309        C317   1.293       .  A
O309       Co329   2.098       .  S
O310        C318   1.272       .  A
O310       Co330   1.999       .  S
O311        C319   1.232       .  A
O311       Co331   1.884       .  S
O312        C320   1.279       .  A
O312       Co332   2.030       .  S
O313        C319   1.267       .  A
O313       Co330   2.037       .  S
O314        C320   1.259       .  A
O314       Co329   1.952       .  S
O315        C318   1.290       .  A
O315       Co332   2.044       .  S
O316        C317   1.245       .  A
O316       Co331   1.925       .  S
C317        C381   1.479       .  S
C318        C508   1.513       .  S
C319        C491   1.454       .  S
C320        C391   1.494       .  S
O321        C334   1.280       .  A
O321       Co329   2.003       .  S
O322        C335   1.249       .  A
O322       Co330   1.915       .  S
O323        C336   1.260       .  A
O323       Co331   2.011       .  S
O324        C337   1.266       .  A
O324       Co332   2.005       .  S
O325        C337   1.256       .  A
O325       Co330   1.956       .  S
O326        C336   1.263       .  A
O326       Co329   2.001       .  S
O327        C334   1.283       .  A
O327       Co332   2.026       .  S
O328        C335   1.284       .  A
O328       Co331   2.066       .  S
Co329       O333   2.091       .  S
Co330       O333   2.101       .  S
Co331       O333   2.077       .  S
Co332       O333   2.112       .  S
C334        C428   1.494       .  S
C335        C591   1.475       .  S
C336        C598   1.496       .  S
C337        C461   1.467       .  S
O338        C346   1.260       .  A
O338       Co358   1.984       .  S
O339        C347   1.256       .  A
O339       Co359   1.939       .  S
O340        C348   1.274       .  A
O340       Co360   2.035       .  S
O341        C349   1.279       .  A
O341       Co361   2.026       .  S
O342        C348   1.259       .  A
O342       Co359   1.954       .  S
O343        C349   1.273       .  A
O343       Co358   1.980       .  S
O344        C347   1.274       .  A
O344       Co361   2.036       .  S
O345        C346   1.264       .  A
O345       Co360   2.007       .  S
C346        C451   1.482       .  S
C347        C521   1.474       .  S
C348        C468   1.480       .  S
C349        C538   1.483       .  S
O350        C363   1.255       .  A
O350       Co358   1.984       .  S
O351        C364   1.269       .  A
O351       Co359   2.026       .  S
O352        C365   1.244       .  A
O352       Co360   1.902       .  S
O353        C366   1.273       .  A
O353       Co361   1.987       .  S
O354        C366   1.273       .  A
O354       Co359   2.023       .  S
O355        C365   1.288       .  A
O355       Co358   2.072       .  S
O356        C363   1.272       .  A
O356       Co361   2.034       .  S
O357        C364   1.243       .  A
O357       Co360   1.926       .  S
Co358       O362   2.109       .  S
Co359       O362   2.095       .  S
Co360       O362   2.085       .  S
Co361       O362   2.114       .  S
C363        C551   1.494       .  S
C364        C401   1.466       .  S
C365        C558   1.464       .  S
C366        C371   1.492       .  S
C367        C368   1.420       .  A
C367        C372   1.404       .  A
C367        H374   1.082       .  S
C368        C369   1.413       .  A
C369        C370   1.397       .  A
C369        F376   1.356       .  S
C370        C371   1.406       .  A
C370        H375   1.083       .  S
C371        C372   1.404       .  A
C372        F373   1.357       .  S
C377        C378   1.414       .  A
C377        C382   1.419       .  A
C377        H384   1.082       .  S
C378        C379   1.428       .  A
C379        C380   1.403       .  A
C379        F386   1.347       .  S
C380        C381   1.393       .  A
C380        H385   1.083       .  S
C381        C382   1.408       .  A
C382        F383   1.353       .  S
C387        C388   1.416       .  A
C387        C392   1.411       .  A
C387        H394   1.082       .  S
C388        C389   1.406       .  A
C389        C390   1.384       .  A
C389        F396   1.357       .  S
C390        C391   1.410       .  A
C390        H395   1.084       .  S
C391        C392   1.400       .  A
C392        F393   1.353       .  S
C397        C398   1.398       .  A
C397        C402   1.375       .  A
C397        H404   1.048       .  S
C398        C399   1.409       .  A
C399        C400   1.407       .  A
C399        F406   1.357       .  S
C400        C401   1.415       .  A
C400        H405   1.083       .  S
C401        C402   1.390       .  A
C402        F403   1.358       .  S
C407        C408   1.421       .  A
C407        C412   1.415       .  A
C407        H414   1.082       .  S
C408        C409   1.424       .  A
C409        C410   1.372       .  A
C409        F416   1.313       .  S
C410        C411   1.367       .  A
C410        H415   1.085       .  S
C411        C412   1.416       .  A
C412        F413   1.357       .  S
C417        C418   1.418       .  A
C417        C422   1.381       .  A
C417        H424   1.082       .  S
C418        C419   1.413       .  A
C419        C420   1.436       .  A
C419        F426   1.356       .  S
C420        C421   1.428       .  A
C420        H425   1.082       .  S
C421        C422   1.409       .  A
C422        F423   1.357       .  S
C427        C428   1.397       .  A
C427        C432   1.383       .  A
C427        H434   1.084       .  S
C428        C429   1.407       .  A
C429        C430   1.417       .  A
C429        F436   1.357       .  S
C430        C431   1.427       .  A
C430        H435   1.081       .  S
C431        C432   1.415       .  A
C432        F433   1.344       .  S
C437        C438   1.415       .  A
C437        C442   1.423       .  A
C437        H444   1.082       .  S
C438        C439   1.405       .  A
C439        C440   1.385       .  A
C439        F446   1.358       .  S
C440        C441   1.415       .  A
C440        H445   1.082       .  S
C441        C442   1.413       .  A
C442        F443   1.356       .  S
C447        C448   1.411       .  A
C447        C452   1.410       .  A
C447        H454   1.082       .  S
C448        C449   1.407       .  A
C449        C450   1.380       .  A
C449        F456   1.347       .  S
C450        C451   1.399       .  A
C450        H455   1.083       .  S
C451        C452   1.409       .  A
C452        F453   1.356       .  S
C457        C458   1.414       .  A
C457        C462   1.400       .  A
C457        H464   1.082       .  S
C458        C459   1.415       .  A
C459        C460   1.378       .  A
C459        F466   1.353       .  S
C460        C461   1.394       .  A
C460        H465   1.084       .  S
C461        C462   1.406       .  A
C462        F463   1.357       .  S
C467        C468   1.398       .  A
C467        C472   1.391       .  A
C467        H474   1.083       .  S
C468        C469   1.408       .  A
C469        C470   1.400       .  A
C469        F476   1.357       .  S
C470        C471   1.413       .  A
C470        H475   1.082       .  S
C471        C472   1.414       .  A
C472        F473   1.351       .  S
C477        C478   1.411       .  A
C477        C482   1.398       .  A
C477        H484   1.083       .  S
C478        C479   1.393       .  A
C479        C480   1.373       .  A
C479        F486   1.358       .  S
C480        C481   1.411       .  A
C480        H485   1.069       .  S
C481        C482   1.407       .  A
C482        F483   1.358       .  S
C487        C488   1.417       .  A
C487        C492   1.376       .  A
C487        H494   1.065       .  S
C488        C489   1.404       .  A
C489        C490   1.391       .  A
C489        F496   1.356       .  S
C490        C491   1.414       .  A
C490        H495   1.083       .  S
C491        C492   1.382       .  A
C492        F493   1.358       .  S
C497        C498   1.411       .  A
C497        C502   1.412       .  A
C497        H504   1.070       .  S
C498        C499   1.407       .  A
C499        C500   1.389       .  A
C499        F506   1.355   1_455  S
C500        C501   1.417       .  A
C500        H505   1.084       .  S
C501        C502   1.393       .  A
C502        F503   1.355       .  S
C507        C508   1.411       .  A
C507        C512   1.391       .  A
C507        H514   1.083       .  S
C508        C509   1.408       .  A
C509        C510   1.425       .  A
C509        F516   1.356       .  S
C510        C511   1.423       .  A
C510        H515   1.081       .  S
C511        C512   1.413       .  A
C512        F513   1.357       .  S
C517        C518   1.410       .  A
C517        C522   1.392       .  A
C517        H524   1.080       .  S
C518        C519   1.417       .  A
C519        C520   1.391       .  A
C519        F526   1.356       .  S
C520        C521   1.398       .  A
C520        H525   1.083       .  S
C521        C522   1.408       .  A
C522        F523   1.358       .  S
C527        C528   1.407       .  A
C527        C532   1.412       .  A
C527        H534   1.078       .  S
C528        C529   1.398       .  A
C529        C530   1.406       .  A
C529        F536   1.356       .  S
C530        C531   1.426       .  A
C530        H535   1.071       .  S
C531        C532   1.405       .  A
C532        F533   1.356       .  S
C537        C538   1.409       .  A
C537        C542   1.408       .  A
C537        H544   1.083       .  S
C538        C539   1.406       .  A
C539        C540   1.379       .  A
C539        F546   1.358       .  S
C540        C541   1.401       .  A
C540        H545   1.079       .  S
C541        C542   1.417       .  A
C542        F543   1.357       .  S
C547        C548   1.419       .  A
C547        C552   1.414       .  A
C547        H554   1.081       .  S
C548        C549   1.408       .  A
C549        C550   1.381       .  A
C549        F556   1.355       .  S
C550        C551   1.408       .  A
C550        H555   1.083       .  S
C551        C552   1.406       .  A
C552        F553   1.357       .  S
C557        C558   1.377       .  A
C557        C562   1.377       .  A
C557        H564   1.084       .  S
C558        C559   1.414       .  A
C559        C560   1.402       .  A
C559        F566   1.358       .  S
C560        C561   1.408       .  A
C560        H565   1.082       .  S
C561        C562   1.420       .  A
C562        F563   1.329       .  S
C567        C568   1.407       .  A
C567        C572   1.410       .  A
C567        H574   1.080       .  S
C568        C569   1.398       .  A
C569        C570   1.392       .  A
C569        F576   1.358       .  S
C570        C571   1.403       .  A
C570        H575   1.072       .  S
C571        C572   1.396       .  A
C572        F573   1.354       .  S
C577        C578   1.402       .  A
C577        C582   1.385       .  A
C577        H584   1.070       .  S
C578        C579   1.422       .  A
C579        C580   1.417       .  A
C579        F586   1.357       .  S
C580        C581   1.407       .  A
C580        H585   1.083       .  S
C581        C582   1.403       .  A
C582        F583   1.359       .  S
C587        C588   1.410       .  A
C587        C592   1.400       .  A
C587        H594   1.083       .  S
C588        C589   1.423       .  A
C589        C590   1.387       .  A
C589        F596   1.337       .  S
C590        C591   1.386       .  A
C590        H595   1.084       .  S
C591        C592   1.413       .  A
C592        F593   1.357       .  S
C597        C598   1.404       .  A
C597        C602   1.396       .  A
C597        H604   1.083       .  S
C598        C599   1.407       .  A
C599        C600   1.411       .  A
C599        F606   1.357       .  S
C600        C601   1.415       .  A
C600        H605   1.081       .  S
C601        C602   1.418       .  A
C602        F603   1.356       .  S
C607        C608   1.383       .  A
C607        C612   1.369       .  A
C607        H614   1.084       .  S
C608        C609   1.413       .  A
C609        C610   1.402       .  A
C609        F616   1.357       .  S
C610        C611   1.400       .  A
C610        H615   1.083       .  S
C611        C612   1.419       .  A
C612        F613   1.347       .  S
C617        C618   1.413       .  A
C617        C622   1.408       .  A
C617        H624   1.083       .  S
C618        C619   1.420       .  A
C619        C620   1.390       .  A
C619        F626   1.339       .  S
C620        C621   1.392       .  A
C620        H625   1.084       .  S
C621        C622   1.413       .  A
C622        F623   1.357       .  S
C627        C628   1.408       .  A
C627        C632   1.414       .  A
C627        H634   1.083       .  S
C628        C629   1.413       .  A
C629        C630   1.387       .  A
C629        F636   1.358       .  S
C630        C631   1.406       .  A
C630        H635   1.081       .  S
C631        C632   1.414       .  A
C632        F633   1.357       .  S
C637        C638   1.412       .  A
C637        C642   1.387       .  A
C637        H644   1.082       .  S
C638        C639   1.419       .  A
C639        C640   1.434       .  A
C639        F646   1.356       .  S
C640        C641   1.416       .  A
C640        H645   1.082       .  S
C641        C642   1.409       .  A
C642        F643   1.360       .  S
C647        C648   1.405       .  A
C647        C652   1.414       .  A
C647        H654   1.079       .  S
C648        C649   1.408       .  A
C649        C650   1.383       .  A
C649        F656   1.360       .  S
C650        C651   1.405       .  A
C650        H655   1.083       .  S
C651        C652   1.409       .  A
C652        F653   1.354       .  S
C657        C658   1.396       .  A
C657        C662   1.400       .  A
C657        H664   1.083       .  S
C658        C659   1.415       .  A
C659        C660   1.425       .  A
C659        F666   1.357       .  S
C660        C661   1.424       .  A
C660        H665   1.082       .  S
C661        C662   1.423       .  A
C662        F663   1.336       .  S
C667        C668   1.405       .  A
C667        C672   1.399       .  A
C667        H674   1.083       .  S
C668        C669   1.407       .  A
C669        C670   1.407       .  A
C669        F676   1.356       .  S
C670        C671   1.413       .  A
C670        H675   1.082       .  S
C671        C672   1.420       .  A
C672        F673   1.357       .  S
C677        C678   1.410       .  A
C677        C682   1.423       .  A
C677        H684   1.081       .  S
C678        C679   1.415       .  A
C679        C680   1.425       .  A
C679        F686   1.356       .  S
C680        C681   1.420       .  A
C680        H685   1.075       .  S
C681        C682   1.420       .  A
C682        F683   1.355       .  S
C687        C688   1.413       .  A
C687        C692   1.409       .  A
C687        H694   1.083       .  S
C688        C689   1.387       .  A
C689        C690   1.374       .  A
C689        F696   1.359       .  S
C690        C691   1.411       .  A
C690        H695   1.063       .  S
C691        C692   1.416       .  A
C692        F693   1.357       .  S
C697        C698   1.402       .  A
C697        C702   1.396       .  A
C697        H704   1.083       .  S
C698        C699   1.401       .  A
C699        C700   1.392       .  A
C699        F706   1.358       .  S
C700        C701   1.413       .  A
C700        H705   1.079       .  S
C701        C702   1.418       .  A
C702        F703   1.355       .  S
C707        C708   1.419       .  A
C707        C712   1.415       .  A
C707        H714   1.082       .  S
C708        C709   1.405       .  A
C709        C710   1.368       .  A
C709        F716   1.356       .  S
C710        C711   1.411       .  A
C710        H715   1.084       .  S
C711        C712   1.400       .  A
C712        F713   1.356       .  S
C717        C718   1.400       .  A
C717        C722   1.404       .  A
C717        H724   1.083       .  S
C718        C719   1.412       .  A
C719        C720   1.373       .  A
C719        F726   1.359       .  S
C720        C721   1.402       .  A
C720        H725   1.082       .  S
C721        C722   1.414       .  A
C722        F723   1.355       .  S
C727        C728   1.382       .  A
C727        C732   1.392       .  A
C727        H734   1.084       .  S
C728        C729   1.425       .  A
C729        C730   1.411       .  A
C729        F736   1.358       .  S
C730        C731   1.397       .  A
C730        H735   1.083       .  S
C731        C732   1.427       .  A
C732        F733   1.353       .  S
C737        C738   1.397       .  A
C737        C742   1.402       .  A
C737        H744   1.083       .  S
C738        C739   1.416       .  A
C739        C740   1.413       .  A
C739        F746   1.355       .  S
C740        C741   1.405       .  A
C740        H745   1.081       .  S
C741        C742   1.429       .  A
C742        F743   1.352       .  S
C747        C748   1.402       .  A
C747        C752   1.407       .  A
C747        H754   1.080       .  S
C748        C749   1.417       .  A
C749        C750   1.378       .  A
C749        F756   1.359       .  S
C750        C751   1.398       .  A
C750        H755   1.081       .  S
C751        C752   1.417       .  A
C752        F753   1.357       .  S
C757        C758   1.416       .  A
C757        C762   1.405       .  A
C757        H764   1.082       .  S
C758        C759   1.415       .  A
C759        C760   1.378       .  A
C759        F766   1.354       .  S
C760        C761   1.394       .  A
C760        H765   1.084       .  S
C761        C762   1.407       .  A
C762        F763   1.357       .  S
C767        C768   1.415       .  A
C767        C772   1.414       .  A
C767        H774   1.083       .  S
C768        C769   1.391       .  A
C769        C770   1.386       .  A
C769        F776   1.358       .  S
C770        C771   1.409       .  A
C770        H775   1.053       .  S
C771        C772   1.414       .  A
C772        F773   1.356       .  S
C777        C778   1.416       .  A
C777        C782   1.393       .  A
C777        H784   1.082       .  S
C778        C779   1.414       .  A
C779        C780   1.431       .  A
C779        F786   1.357       .  S
C780        C781   1.418       .  A
C780        H785   1.082       .  S
C781        C782   1.407       .  A
C782        F783   1.358       .  S
C787        C788   1.398       .  A
C787        C792   1.382       .  A
C787        H794   1.081       .  S
C788        C789   1.416       .  A
C789        C790   1.402       .  A
C789        F796   1.350       .  S
C790        C791   1.393       .  A
C790        H795   1.078       .  S
C791        C792   1.416       .  A
C792        F793   1.359       .  S
C797        C798   1.424       .  A
C797        C802   1.439       .  A
C797        H804   1.082       .  S
C798        C799   1.408       .  A
C799        C800   1.378       .  A
C799        F806   1.358       .  S
C800        C801   1.416       .  A
C800        H805   1.083       .  S
C801        C802   1.415       .  A
C802        F803   1.356       .  S
C807        C808   1.411       .  A
C807        C812   1.392       .  A
C807        H814   1.083       .  S
C808        C809   1.411       .  A
C809        C810   1.423       .  A
C809        F816   1.356       .  S
C810        C811   1.420       .  A
C810        H815   1.083       .  S
C811        C812   1.412       .  A
C812        F813   1.356       .  S
C817        C818   1.406       .  A
C817        C822   1.415       .  A
C817        H824   1.082       .  S
C818        C819   1.412       .  A
C819        C820   1.416       .  A
C819        F826   1.356       .  S
C820        C821   1.409       .  A
C820        H825   1.081       .  S
C821        C822   1.423       .  A
C822        F823   1.357       .  S
C827        C828   1.386       .  A
C827        C832   1.382       .  A
C827        H834   1.084       .  S
C828        C829   1.413       .  A
C829        C830   1.412       .  A
C829        F836   1.357       .  S
C830        C831   1.415       .  A
C830        H835   1.083       .  S
C831        C832   1.418       .  A
C832        F833   1.332       .  S
C837        C838   1.407       .  A
C837        C842   1.364       .  A
C837        H844   1.052       .  S
C838        C839   1.402       .  A
C839        C840   1.400       .  A
C839        F846   1.357       .  S
C840        C841   1.417       .  A
C840        H845   1.083       .  S
C841        C842   1.381       .  A
C842        F843   1.359       .  S
