geometry optimzed in LAMMPS
_audit_creation_date              2020-11-30 
_audit_creation_method            'lammps2cif' 
_symmetry_space_group_name_H-M    'P1' 
_symmetry_Int_Tables_number       1 
_symmetry_cell_setting            triclinic 
loop_ 
_symmetry_equiv_pos_as_xyz 
  x,y,z 
_cell_length_a                    38.83052332 
_cell_length_b                    37.056306909906766 
_cell_length_c                    37.64455799454195 
_cell_angle_alpha                 92.16826263907573 
_cell_angle_beta                  90.66567448860008 
_cell_angle_gamma                 88.08878511926994 
loop_ 
_atom_site_label 
_atom_site_type_symbol 
_atom_site_fract_x 
_atom_site_fract_y 
_atom_site_fract_z 
_atom_site_charge 
O1          O  0.51802771  0.41269716  0.45789461    -0.81100
O2          O  0.47285305  0.54807082  0.56299415    -0.65800
O3          O  0.48264913  0.47365426  0.48652511    -1.12400
C4          C  0.54980157  0.56126646  0.44108250     1.05800
O5          O  0.47105083  0.59591149  0.52873834    -0.79000
O6          O  0.45261106  0.56067195  0.46264177    -0.66600
Ni7        Ni  0.49959897  0.42778938  0.50270577     1.34900
C8          C  0.45277319  0.53761773  0.43627419     0.84500
O9          O  0.44199417  0.48060265  0.54651279    -0.79500
O10         O  0.47867038  0.43507751  0.54759130    -0.89800
C11         C  0.47098125  0.58252890  0.55950239     0.84100
O12         O  0.54183807  0.45011949  0.51916014    -0.68000
O13         O  0.51939249  0.57508698  0.44146753    -0.87300
C14         C  0.54267855  0.47288712  0.54558166     0.84900
C15         C  0.44781296  0.44667879  0.54939308     1.06500
H16         H  0.53092169  0.53836157  0.51313954     0.38300
O17         O  0.50976541  0.53543153  0.49972812    -1.10000
O18         O  0.47977704  0.51773570  0.42955590    -0.66600
Ni19       Ni  0.51653189  0.49895846  0.46147942     1.26300
O20         O  0.51556657  0.49148944  0.55466467    -0.66800
O21         O  0.55335218  0.52695071  0.44239089    -0.79100
C22         C  0.52194791  0.42594533  0.42779792     0.84300
O23         O  0.52233103  0.46032324  0.42403196    -0.66300
Ni24       Ni  0.49375107  0.58171461  0.48440303     1.27400
Ni25       Ni  0.47696674  0.50977981  0.52526842     1.26100
H26         H  0.46149532  0.47100088  0.47299141     0.38800
O27         O  0.57151858  0.25956748  0.20399520    -0.81100
O28         O  0.46348178  0.21238567  0.32159545    -0.65800
O29         O  0.51939556  0.22487451  0.23677933    -1.12400
C30         C  0.42507282  0.30321931  0.20888617     1.05800
O31         O  0.41509887  0.20928694  0.29020575    -0.79000
O32         O  0.43478445  0.19953522  0.21840247    -0.66600
Ni33       Ni  0.56619040  0.23679082  0.24743985     1.34900
C34         C  0.45267838  0.20270528  0.19031643     0.84500
O35         O  0.52503479  0.17593886  0.29217657    -0.79500
O36         O  0.56841618  0.21101698  0.29004565    -0.89800
C37         C  0.43031613  0.21195301  0.32041777     0.84100
O38         O  0.54960298  0.28108346  0.27153212    -0.68000
O39         O  0.41185942  0.27232905  0.21104501    -0.87300
C40         C  0.53160478  0.28201069  0.29979897     0.84900
C41         C  0.55783038  0.17919757  0.29100735     1.06500
H42         H  0.46161130  0.27497324  0.27724801     0.38300
O43         O  0.46298090  0.25418481  0.26098806    -1.10000
O44         O  0.46891059  0.23147417  0.18561320    -0.66600
Ni45       Ni  0.49029276  0.26485124  0.22032826     1.26300
O46         O  0.51555136  0.25416617  0.30889410    -0.66800
O47         O  0.45812089  0.30545753  0.20947407    -0.79100
C48         C  0.55353361  0.27138319  0.17852999     0.84300
O49         O  0.52049433  0.27528751  0.18021596    -0.66300
Ni50       Ni  0.41735625  0.23945796  0.24954927     1.27400
Ni51       Ni  0.49292335  0.21672780  0.27927150     1.26100
H52         H  0.51891670  0.20398903  0.22058865     0.38800
C53         C  0.74436536  0.76346774  0.70076267     0.80000
N54         N  0.75950940  0.73298725  0.71328812    -0.78300
C55         C  0.74766521  0.71783941  0.74266451     0.82500
N56         N  0.72023987  0.73356972  0.75955655    -0.78200
C57         C  0.70464998  0.76408609  0.74771334     0.82500
N58         N  0.71719396  0.77930021  0.71846847    -0.80000
C59         C  0.77715181  0.03499186  0.99341476     0.80000
N60         N  0.79037230  0.02173499  0.02374933    -0.78300
C61         C  0.77346040  0.99721473  0.04193099     0.82500
N62         N  0.74259855  0.98584959  0.02939569    -0.78200
C63         C  0.72853735  0.99919286  0.99919247     0.82500
N64         N  0.74626328  0.02347452  0.98115465    -0.80000
C65         C  0.00332573  0.70136361  0.00100654     0.80000
N66         N  0.03412325  0.71309016  0.99088361    -0.78300
C67         C  0.05058565  0.73866553  0.01057424     0.82500
N68         N  0.03544224  0.75299507  0.04041540    -0.78200
C69         C  0.00456012  0.74142960  0.05081635     0.82500
N70         N  0.98871213  0.71583445  0.03081093    -0.80000
C71         C  0.02595892  0.03524136  0.75922980     0.80000
N72         N  0.00753664  0.01880545  0.73288993    -0.78300
C73         C  0.01603021  0.98484051  0.72093938     0.82500
N74         N  0.04306174  0.96701406  0.73605331    -0.78200
C75         C  0.06169269  0.98285551  0.76254843     0.82500
N76         N  0.05285034  0.01696095  0.77408990    -0.80000
O77         O  0.13984547  0.91056010  0.89515137    -0.74600
O78         O  0.21080235  0.86640750  0.95303144    -0.74700
O79         O  0.20585207  0.91868776  0.89488099    -0.74700
O80         O  0.14361180  0.86207883  0.94779016    -0.74800
O81         O  0.14784655  0.81859619  0.90533756    -0.74700
O82         O  0.21510262  0.87104958  0.85851310    -0.74700
O83         O  0.21449039  0.82013914  0.91410671    -0.74700
O84         O  0.14803930  0.86680068  0.85341801    -0.74700
Ni85       Ni  0.17551032  0.89120451  0.92442086     1.25400
Ni86       Ni  0.18213890  0.84261817  0.88145558     1.25400
C87         C  0.13424321  0.89712652  0.86391790     0.87500
C88         C  0.21715465  0.83242853  0.94630657     0.87500
C89         C  0.21449163  0.90546404  0.86392267     0.87500
C90         C  0.13616911  0.83064900  0.93517427     0.87700
O91         O  0.92632276  0.86188712  0.15022623    -0.74600
O92         O  0.87368468  0.91743985  0.22011896    -0.74700
O93         O  0.92376372  0.85473829  0.21870515    -0.74700
O94         O  0.87980866  0.91764077  0.15069092    -0.74800
O95         O  0.83858871  0.87741906  0.14305850    -0.74700
O96         O  0.87995509  0.81806467  0.21446029    -0.74700
O97         O  0.83048915  0.88040740  0.21162264    -0.74700
O98         O  0.88501494  0.82156555  0.14508613    -0.74700
Ni99       Ni  0.90243557  0.88933248  0.18606050     1.25400
Ni100      Ni  0.85690803  0.84792967  0.17912115     1.25400
C101        C  0.91484869  0.83237858  0.13698706     0.87500
C102        C  0.84095697  0.91254691  0.21941665     0.87500
C103        C  0.91230019  0.82244116  0.22033970     0.87500
C104        C  0.85155680  0.90754564  0.13609835     0.87700
O105        O  0.83504673  0.87735470  0.61878221    -0.74600
O106        O  0.90059360  0.92294915  0.56006759    -0.74700
O107        O  0.84074571  0.87489812  0.54998913    -0.74700
O108        O  0.88957456  0.92098438  0.62828129    -0.74800
O109        O  0.92416617  0.87198359  0.63201646    -0.74700
O110        O  0.87938978  0.82951418  0.55072841    -0.74700
O111        O  0.93707906  0.87583104  0.56390256    -0.74700
O112        O  0.87005323  0.82840637  0.61944772    -0.74700
Ni113      Ni  0.86529739  0.90092071  0.58839280     1.25400
Ni114      Ni  0.90394613  0.84971791  0.59108895     1.25400
C115        C  0.84130285  0.84467119  0.62720861     0.87500
C116        C  0.93192520  0.90984020  0.55928809     0.87500
C117        C  0.84860703  0.84121549  0.54355843     0.87500
C118        C  0.91562753  0.90435485  0.64198609     0.87700
O119        O  0.87071080  0.62637335  0.81899572    -0.74600
O120        O  0.92276305  0.55618300  0.87189532    -0.74700
O121        O  0.86982952  0.55551151  0.81870888    -0.74700
O122        O  0.92083928  0.62687567  0.87018117    -0.74800
O123        O  0.88074400  0.62829180  0.91224720    -0.74700
O124        O  0.82813348  0.55940133  0.85897752    -0.74700
O125        O  0.88054958  0.55756830  0.91155934    -0.74700
O126        O  0.83095296  0.63006231  0.86137890    -0.74700
Ni127      Ni  0.89748592  0.59069789  0.84332073     1.25400
Ni128      Ni  0.85371469  0.59356974  0.88756015     1.25400
C129        C  0.84155697  0.63833965  0.83081153     0.87500
C130        C  0.91205144  0.55024126  0.90318305     0.87500
C131        C  0.83832083  0.55120531  0.82740164     0.87500
C132        C  0.91009042  0.63726039  0.90097094     0.87700
O133        O  0.61138412  0.92816425  0.89627308    -0.74600
O134        O  0.54450100  0.86928441  0.84665282    -0.74700
O135        O  0.54416490  0.92602334  0.90357138    -0.74700
O136        O  0.61098988  0.87657237  0.84318312    -0.74800
O137        O  0.61682301  0.83260662  0.88177698    -0.74700
O138        O  0.55299443  0.88552268  0.94462453    -0.74700
O139        O  0.54956273  0.82858718  0.88820080    -0.74700
O140        O  0.61995241  0.88466981  0.93498037    -0.74700
Ni141      Ni  0.57676845  0.90152417  0.87111199     1.25400
Ni142      Ni  0.58446377  0.85626535  0.91394606     1.25400
C143        C  0.62634428  0.91604274  0.92412106     0.87500
C144        C  0.54247726  0.83617436  0.85574754     0.87500
C145        C  0.54381314  0.91792737  0.93647812     0.87500
C146        C  0.62366584  0.84581131  0.85172059     0.87700
O147        O  0.89058538  0.13292200  0.92063678    -0.74600
O148        O  0.92909405  0.20842850  0.86701701    -0.74700
O149        O  0.87494995  0.20275926  0.91888552    -0.74700
O150        O  0.94218633  0.13894632  0.87261677    -0.74800
O151        O  0.90550805  0.13058793  0.82722391    -0.74700
O152        O  0.83713347  0.18966141  0.87589679    -0.74700
O153        O  0.88857569  0.19971979  0.82557685    -0.74700
O154        O  0.85537254  0.12074103  0.87490626    -0.74700
Ni155      Ni  0.91052193  0.17169225  0.89649429     1.25400
Ni156      Ni  0.87031262  0.16014723  0.84938614     1.25400
C157        C  0.86562894  0.11533846  0.90665939     0.87500
C158        C  0.91769095  0.21235688  0.83509519     0.87500
C159        C  0.84359950  0.20160279  0.90766807     0.87500
C160        C  0.93535754  0.12599177  0.84146334     0.87700
O161        O  0.28083833  0.53616964  0.32815574    -0.81100
O162        O  0.16764407  0.46053752  0.23135048    -0.65800
O163        O  0.24934039  0.48223686  0.28716597    -1.12400
C164        C  0.27433814  0.54463838  0.18093096     1.05800
O165        O  0.20296316  0.44173656  0.18980197    -0.79000
O166        O  0.27086761  0.44626167  0.18631335    -0.66600
Ni167      Ni  0.24170106  0.50624973  0.33256685     1.34900
C168        C  0.29504333  0.44446500  0.20941551     0.84500
O169        O  0.19330793  0.43911446  0.29740585    -0.79500
O170        O  0.20479159  0.47482294  0.34478585    -0.89800
C171        C  0.17242625  0.44931945  0.19943315     0.84100
O172        O  0.21120920  0.54482854  0.31416016    -0.68000
O173        O  0.25862496  0.51909782  0.16470801    -0.87300
C174        C  0.18428230  0.54230862  0.29438107     0.84900
C175        C  0.19549131  0.44447693  0.33118277     1.06500
H176        H  0.21404170  0.52294176  0.22443268     0.38300
O177        O  0.22758503  0.50071159  0.22610793    -1.10000
O178        O  0.29747588  0.46868005  0.23426146    -0.66600
Ni179      Ni  0.26950380  0.51101315  0.25156710     1.26300
O180        O  0.17810009  0.51246963  0.27775003    -0.66800
O181        O  0.28392336  0.54323901  0.21403580    -0.79100
C182        C  0.30983384  0.52748579  0.31417242     0.84300
O183        O  0.31095801  0.51921802  0.28085279    -0.66300
Ni184      Ni  0.23191376  0.47966214  0.17904055     1.27400
Ni185      Ni  0.20785311  0.47104701  0.26096618     1.26100
H186        H  0.26302752  0.46032788  0.29041916     0.38800
O187        O  0.21778670  0.16472776  0.47863817    -0.81100
O188        O  0.32019509  0.28610760  0.54074685    -0.65800
O189        O  0.24563919  0.21909831  0.52405010    -1.12400
C190        C  0.19791064  0.31434218  0.45975104     1.05800
O191        O  0.28888741  0.33742942  0.53617686    -0.79000
O192        O  0.22609889  0.31008786  0.55766798    -0.66600
Ni193      Ni  0.25946415  0.17164729  0.50604688     1.34900
C194        C  0.19921206  0.29101461  0.55742963     0.84500
O195        O  0.30178347  0.21975245  0.56985866    -0.79500
O196        O  0.30018056  0.17043229  0.53558272    -0.89800
C197        C  0.31750988  0.32081463  0.54103645     0.84100
O198        O  0.28359341  0.19008283  0.46530578    -0.68000
O199        O  0.20175475  0.32730062  0.49099184    -0.87300
C200        C  0.30912988  0.21117885  0.46644568     0.84900
C201        C  0.30279906  0.18510161  0.56658316     1.06500
H202        H  0.27210471  0.28125843  0.47631860     0.38300
O203        O  0.25920265  0.28016484  0.49802740    -1.10000
O204        O  0.19213932  0.27021329  0.53040340    -0.66600
Ni205      Ni  0.22063691  0.24835242  0.49109054     1.26300
O206        O  0.31471381  0.23096329  0.49456532    -0.66800
O207        O  0.20047283  0.27993228  0.45481131    -0.79100
C208        C  0.18761842  0.17882945  0.48257995     0.84300
O209        O  0.18337770  0.21337376  0.48643665    -0.66300
Ni210      Ni  0.24533354  0.32817160  0.51464934     1.27400
Ni211      Ni  0.28346376  0.25120643  0.53258787     1.26100
H212        H  0.23272119  0.21704420  0.54562714     0.38800
O213        O  0.59097809  0.78917950  0.73333551    -0.81100
O214        O  0.47199949  0.73051356  0.83388561    -0.65800
O215        O  0.53906632  0.74609086  0.75976656    -1.12400
C216        C  0.44796306  0.81119827  0.71162775     1.05800
O217        O  0.42557233  0.73070184  0.79835054    -0.79000
O218        O  0.45759030  0.71098226  0.73323174    -0.66600
Ni219      Ni  0.58253720  0.76395131  0.77613968     1.34900
C220        C  0.47681296  0.71244793  0.70592720     0.84500
O221        O  0.53764128  0.70139226  0.81659947    -0.79500
O222        O  0.58227466  0.73629814  0.81813582    -0.89800
C223        C  0.43940418  0.72756584  0.82886078     0.84100
O224        O  0.56112788  0.80642248  0.80064600    -0.68000
O225        O  0.43815971  0.77909927  0.71259464    -0.87300
C226        C  0.54070547  0.80560746  0.82715216     0.84900
C227        C  0.57015163  0.70500162  0.81946854     1.06500
H228        H  0.47425845  0.79439732  0.78706493     0.38300
O229        O  0.47828558  0.77238614  0.77291336    -1.10000
O230        O  0.49460780  0.74060036  0.70157335    -0.66600
Ni231      Ni  0.51050094  0.78002630  0.73501298     1.26300
O232        O  0.52258429  0.77763056  0.83135725    -0.66800
O233        O  0.47986020  0.81708722  0.71573533    -0.79100
C234        C  0.57697416  0.79030330  0.70258393     0.84300
O235        O  0.54451831  0.78673614  0.69819151    -0.66300
Ni236      Ni  0.43543775  0.75400574  0.75542570     1.27400
Ni237      Ni  0.50682852  0.73833787  0.79761822     1.26100
H238        H  0.54280711  0.72405230  0.74559109     0.38800
O239        O  0.33393807  0.77979363  0.05350030    -0.81100
O240        O  0.22006246  0.67788554  0.97870344    -0.65800
O241        O  0.28365684  0.75433894  0.00539948    -1.12400
C242        C  0.19163184  0.79830448  0.07446101     1.05800
O243        O  0.17127393  0.71080513  0.98600555    -0.79000
O244        O  0.19920585  0.77834399  0.97316062    -0.66600
Ni245      Ni  0.32759602  0.73757904  0.02329770     1.34900
C246        C  0.21874047  0.80555955  0.97599060     0.84500
O247        O  0.28495594  0.69945785  0.95418573    -0.79500
O248        O  0.32875891  0.69620055  0.99133975    -0.89800
C249        C  0.18696249  0.68104430  0.97778260     0.84100
O250        O  0.30631569  0.71135524  0.06104885    -0.68000
O251        O  0.18033499  0.79761180  0.04270901    -0.87300
C252        C  0.28677849  0.68437722  0.05601641     0.84900
C253        C  0.31762262  0.69708585  0.95956301     1.06500
H254        H  0.22234085  0.72270424  0.04870909     0.38300
O255        O  0.22441778  0.73807386  0.02872863    -1.10000
O256        O  0.23622321  0.81141645  0.00465881    -0.66600
Ni257      Ni  0.25478074  0.77766347  0.04070294     1.26300
O258        O  0.27061032  0.67999103  0.02637089    -0.66800
O259        O  0.22420570  0.79541690  0.07925626    -0.79100
C260        C  0.32032127  0.81146595  0.05281239     0.84300
O261        O  0.28755760  0.81612423  0.04992724    -0.66300
Ni262      Ni  0.17964153  0.75447314  0.01318776     1.27400
Ni263      Ni  0.25312434  0.71567218  0.99198006     1.26100
H264        H  0.28687209  0.76969116  0.98559634     0.38800
O265        O  0.05486919  0.44393598  0.03644651    -0.81100
O266        O  0.96786027  0.53122812  0.92835141    -0.65800
O267        O  0.02044786  0.50314273  0.01159909    -1.12400
C268        C  0.91789281  0.43741752  0.03319113     1.05800
O269        O  0.92485793  0.54389780  0.96369085    -0.79000
O270        O  0.92290799  0.53604854  0.03196652    -0.66600
Ni271      Ni  0.06494761  0.48060146  0.00479761     1.34900
C272        C  0.94558827  0.53829703  0.05654157     0.84500
O273        O  0.03242753  0.55103077  0.95849436    -0.79500
O274        O  0.07947249  0.51848676  0.97546296    -0.89800
C275        C  0.93606431  0.53987574  0.93244057     0.84100
O276        O  0.05270870  0.44796820  0.96529922    -0.68000
O277        O  0.90219330  0.46280877  0.01700618    -0.87300
C278        C  0.03335649  0.45235527  0.93810320     0.84900
C279        C  0.06524243  0.54753725  0.96430834     1.06500
H280        H  0.96160987  0.46389370  0.97091087     0.38300
O281        O  0.96209739  0.48522642  0.98645880    -1.10000
O282        O  0.96914608  0.51388461  0.05984554    -0.66600
Ni283      Ni  0.98586529  0.47263663  0.02976761     1.26300
O284        O  0.01348382  0.48016675  0.93578821    -0.66800
O285        O  0.94985482  0.43926238  0.04303381    -0.79100
C286        C  0.04501692  0.45204696  0.06779029     0.84300
O287        O  0.01359065  0.46197562  0.07205203    -0.66300
Ni288      Ni  0.91566714  0.50385090  0.99116378     1.27400
Ni289      Ni  0.99604725  0.51771369  0.96961046     1.26100
H290        H  0.02310474  0.52411242  0.02732260     0.38800
O291        O  0.21847840  0.07374902  0.81648594    -0.81100
O292        O  0.32212826  0.97106202  0.73609782    -0.65800
O293        O  0.24129429  0.03042755  0.76058571    -1.12400
C294        C  0.22100645  0.92834360  0.83210049     1.05800
O295        O  0.28704549  0.92727247  0.72341890    -0.79000
O296        O  0.21899630  0.93136631  0.73212619    -0.66600
Ni297      Ni  0.24689371  0.07960122  0.77668077     1.34900
C298        C  0.19382293  0.95438941  0.73312586     0.84500
O299        O  0.29616155  0.03786755  0.71294312    -0.79500
O300        O  0.27363209  0.09031279  0.73582295    -0.89800
C301        C  0.31754999  0.93823906  0.72636527     0.84100
O302        O  0.28614440  0.07138622  0.80793655    -0.68000
O303        O  0.23274828  0.91067694  0.80479732    -0.87300
C304        C  0.31083105  0.04789034  0.80892279     0.84900
C305        C  0.28915136  0.07207896  0.71110372     1.06500
H306        H  0.28015842  0.96851117  0.80142882     0.38300
O307        O  0.26492376  0.96976989  0.78100093    -1.10000
O308        O  0.19171044  0.97841412  0.75825736    -0.66600
Ni309      Ni  0.22410783  0.99747514  0.79469339     1.26300
O310        O  0.31332757  0.02200164  0.78564932    -0.66800
O311        O  0.21284952  0.96251738  0.83128695    -0.79100
C312        C  0.18814422  0.06275016  0.81275678     0.84300
O313        O  0.18418607  0.02910749  0.80636331    -0.66300
Ni314      Ni  0.25847696  0.92152254  0.76330100     1.27400
Ni315      Ni  0.28257580  0.00288247  0.74790121     1.26100
H316        H  0.22619269  0.03067596  0.74000768     0.38800
O317        O  0.83491917  0.78116043  0.52758711    -0.81100
O318        O  0.71039772  0.68465721  0.46649677    -0.65800
O319        O  0.77829948  0.75822684  0.48620156    -1.12400
C320        C  0.69313724  0.80501554  0.56247973     1.05800
O321        O  0.66277846  0.71855014  0.47654112    -0.79000
O322        O  0.69216047  0.78487520  0.46106545    -0.66600
Ni323      Ni  0.82274379  0.73881341  0.49965008     1.34900
C324        C  0.71261229  0.81137902  0.46207695     0.84500
O325        O  0.77232902  0.70286297  0.43577004    -0.79500
O326        O  0.81880468  0.69650477  0.46894718    -0.89800
C327        C  0.67749175  0.68848787  0.46748386     0.84100
O328        O  0.80352587  0.71524637  0.54021801    -0.68000
O329        O  0.67960370  0.80498546  0.53167310    -0.87300
C330        C  0.78222137  0.68955161  0.53772228     0.84900
C331        C  0.80467167  0.69612989  0.43833034     1.06500
H332        H  0.71937297  0.72941026  0.53498543     0.38300
O333        O  0.72043192  0.74463827  0.51478163    -1.10000
O334        O  0.73280303  0.81671841  0.48906265    -0.66600
Ni335      Ni  0.75335168  0.78274153  0.52403171     1.26300
O336        O  0.76388908  0.68517838  0.50947981    -0.66800
O337        O  0.72600212  0.80170755  0.56476124    -0.79100
C338        C  0.82232241  0.81310225  0.53252107     0.84300
O339        O  0.78936983  0.81932931  0.53184021    -0.66300
Ni340      Ni  0.67488926  0.76200860  0.50278371     1.27400
Ni341      Ni  0.74515389  0.72110772  0.47607280     1.26100
H342        H  0.78040249  0.77336894  0.46604791     0.38800
O343        O  0.95962008  0.68833632  0.32271264    -0.81100
O344        O  0.06459305  0.76541074  0.22821547    -0.65800
O345        O  0.98620144  0.74652676  0.28724380    -1.12400
C346        C  0.94884172  0.68771403  0.17949763     1.05800
O347        O  0.03012305  0.78343678  0.18513015    -0.79000
O348        O  0.96152558  0.78866658  0.19637424    -0.66600
Ni349      Ni  0.99446010  0.72299834  0.33142581     1.34900
C350        C  0.93761798  0.78941223  0.21945136     0.84500
O351        O  0.04473451  0.78684199  0.29858269    -0.79500
O352        O  0.02726498  0.75834440  0.34673741    -0.89800
C353        C  0.06034712  0.77565398  0.19631984     0.84100
O354        O  0.02888873  0.68690832  0.31481101    -0.68000
O355        O  0.95916272  0.71592174  0.16498251    -0.87300
C356        C  0.05285028  0.68713754  0.29190732     0.84900
C357        C  0.04092936  0.78499602  0.33252305     1.06500
H358        H  0.01536445  0.70594058  0.21859420     0.38300
O359        O  0.00265766  0.72843890  0.22332781    -1.10000
O360        O  0.93361186  0.76209756  0.23879235    -0.66600
Ni361      Ni  0.96281353  0.71879983  0.25095320     1.26300
O362        O  0.05540523  0.71373821  0.27155417    -0.66800
O363        O  0.94498190  0.68670620  0.21329124    -0.79100
C364        C  0.92921782  0.69639914  0.31234918     0.84300
O365        O  0.92459179  0.70971292  0.28188999    -0.66300
Ni366      Ni  0.99364023  0.75049599  0.17864333     1.27400
Ni367      Ni  0.02614655  0.75639265  0.25966219     1.26100
H368        H  0.97346260  0.76895093  0.29226554     0.38800
O369        O  0.42039704  0.97726678  0.03148202    -0.81100
O370        O  0.53627496  0.08108288  0.97273142    -0.65800
O371        O  0.47383773  0.00303082  0.99078460    -1.12400
C372        C  0.56602206  0.96584215  0.06416176     1.05800
O373        O  0.58383491  0.04578029  0.97164055    -0.79000
O374        O  0.55998169  0.97532661  0.96251056    -0.66600
Ni375      Ni  0.42838635  0.01916456  0.00547726     1.34900
C376        C  0.54065555  0.94823382  0.96522409     0.84500
O377        O  0.47242130  0.05773442  0.94197186    -0.79500
O378        O  0.42855183  0.06081426  0.97744630    -0.89800
C379        C  0.56920937  0.07696077  0.96999549     0.84100
O380        O  0.44743356  0.04440870  0.04684744    -0.68000
O381        O  0.57973559  0.96647011  0.03369129    -0.87300
C382        C  0.46662207  0.07169926  0.04597915     0.84900
C383        C  0.43968344  0.05942511  0.94595725     1.06500
H384        H  0.53473271  0.03804846  0.03715200     0.38300
O385        O  0.53256156  0.02167844  0.01671169    -1.10000
O386        O  0.52180006  0.94572215  0.99285884    -0.66600
Ni387      Ni  0.50255583  0.98303287  0.02771130     1.26300
O388        O  0.48408547  0.07736539  0.01797371    -0.66800
O389        O  0.53320603  0.96897116  0.06677434    -0.79100
C390        C  0.43680106  0.94850490  0.03932273     0.84300
O391        O  0.46987341  0.94572266  0.03857839    -0.66300
Ni392      Ni  0.57769990  0.00561615  0.00166540     1.27400
Ni393      Ni  0.50359050  0.04265503  0.98090366     1.26100
H394        H  0.47234876  0.98656782  0.97033810     0.38800
C395        C  0.21713266  0.74595180  0.24582997     0.80000
N396        N  0.23371286  0.76464738  0.22142478    -0.78300
C397        C  0.26298159  0.75102443  0.20617287     0.82500
N398        N  0.27596739  0.71854836  0.21610924    -0.78200
C399        C  0.26004231  0.69958382  0.24079453     0.82500
N400        N  0.23064089  0.71356169  0.25543543    -0.80000
O401        O  0.37779357  0.60593968  0.32141674    -0.74600
O402        O  0.42811562  0.53638529  0.37657858    -0.74700
O403        O  0.37186665  0.53615171  0.32398548    -0.74700
O404        O  0.42964914  0.60702370  0.37121783    -0.74800
O405        O  0.38834715  0.61700969  0.41125834    -0.74700
O406        O  0.33692149  0.54064670  0.37031706    -0.74700
O407        O  0.39229330  0.54791074  0.42140567    -0.74700
O408        O  0.33712638  0.61048632  0.36283453    -0.74700
Ni409      Ni  0.40338754  0.57045018  0.34666598     1.25400
Ni410      Ni  0.36226826  0.57868050  0.39301267     1.25400
C411        C  0.34821001  0.61770065  0.33207422     0.87500
C412        C  0.42256347  0.53828161  0.41026859     0.87500
C413        C  0.34159493  0.53322602  0.33709880     0.87500
C414        C  0.41846693  0.62259436  0.40005222     0.87700
C415        C  0.51220948  0.01155858  0.21743102     0.80000
N416        N  0.53973452  0.99526380  0.23343518    -0.78300
C417        C  0.55280356  0.00890344  0.26446737     0.82500
N418        N  0.53744403  0.03887087  0.27978084    -0.78200
C419        C  0.50970214  0.05536983  0.26443426     0.82500
N420        N  0.49741538  0.04151753  0.23326960    -0.80000
O421        O  0.63039906  0.92075189  0.38856157    -0.74600
O422        O  0.70080272  0.87208474  0.44273656    -0.74700
O423        O  0.69728534  0.92605230  0.38963228    -0.74700
O424        O  0.63344686  0.86842326  0.43774283    -0.74800
O425        O  0.63747935  0.82705108  0.39333921    -0.74700
O426        O  0.70242979  0.88394598  0.34635282    -0.74700
O427        O  0.70428264  0.82879874  0.40052968    -0.74700
O428        O  0.63579664  0.87960372  0.34412252    -0.74700
Ni429      Ni  0.66570833  0.89836585  0.41619859     1.25400
Ni430      Ni  0.67075833  0.85325580  0.36956121     1.25400
C431        C  0.62367454  0.91002788  0.35664340     0.87500
C432        C  0.70812107  0.83908884  0.43344474     0.87500
C433        C  0.70491230  0.91703572  0.35726707     0.87500
C434        C  0.62662632  0.83722612  0.42412210     0.87700
O435        O  0.34181775  0.88086220  0.13657965    -0.74600
O436        O  0.38351598  0.92809212  0.06059585    -0.74700
O437        O  0.33294695  0.87435573  0.06779097    -0.74700
O438        O  0.38974807  0.93238477  0.13023390    -0.74800
O439        O  0.43055953  0.88863938  0.12956496    -0.74700
O440        O  0.37674005  0.83440306  0.06236009    -0.74700
O441        O  0.42776257  0.88837875  0.06020150    -0.74700
O442        O  0.38237615  0.83697992  0.13175922    -0.74700
Ni443      Ni  0.36052626  0.90558543  0.09848951     1.25400
Ni444      Ni  0.40580651  0.86050470  0.09546150     1.25400
C445        C  0.35363725  0.84944218  0.14416469     0.87500
C446        C  0.41504319  0.91962219  0.05294754     0.87500
C447        C  0.34423080  0.84207713  0.06009099     0.87500
C448        C  0.41995559  0.92058633  0.13892371     0.87700
C449        C  0.24984009  0.04458077  0.50970305     0.80000
N450        N  0.22276555  0.02844901  0.49347349    -0.78300
C451        C  0.20598791  0.00222288  0.50957485     0.82500
N452        N  0.21691613  0.99186002  0.54202836    -0.78200
C453        C  0.24424271  0.00718933  0.55838284     0.82500
N454        N  0.26042211  0.03355817  0.54194473    -0.80000
C455        C  0.50729024  0.69929427  0.49731276     0.80000
N456        N  0.49104315  0.71524512  0.52571042    -0.78300
C457        C  0.50470465  0.74333343  0.54417815     0.82500
N458        N  0.53536181  0.75541982  0.53396682    -0.78200
C459        C  0.55219278  0.74000801  0.50567427     0.82500
N460        N  0.53780276  0.71201268  0.48729237    -0.80000
O461        O  0.33191246  0.88248043  0.63540809    -0.74600
O462        O  0.39116212  0.82912900  0.69621009    -0.74700
O463        O  0.33778054  0.88087278  0.70446605    -0.74700
O464        O  0.38422024  0.83247188  0.62718980    -0.74800
O465        O  0.42260623  0.87589503  0.62744516    -0.74700
O466        O  0.37527173  0.92508544  0.70505928    -0.74700
O467        O  0.43011984  0.87195976  0.69650940    -0.74700
O468        O  0.36973572  0.92645901  0.63572944    -0.74700
Ni469      Ni  0.36001902  0.85469462  0.66608123     1.25400
Ni470      Ni  0.40090614  0.90149980  0.66649250     1.25400
C471        C  0.33991863  0.91439122  0.62790764     0.87500
C472        C  0.42200129  0.83930870  0.70181611     0.87500
C473        C  0.34565820  0.91343658  0.71287289     0.87500
C474        C  0.41258820  0.84475283  0.61665351     0.87700
O475        O  0.37920736  0.13636551  0.34308994    -0.74600
O476        O  0.32396736  0.20178325  0.40356149    -0.74700
O477        O  0.37489554  0.20689797  0.34772821    -0.74700
O478        O  0.33077096  0.13182816  0.39396097    -0.74800
O479        O  0.36934773  0.13493695  0.43815973    -0.74700
O480        O  0.41963335  0.20305990  0.38456996    -0.74700
O481        O  0.36749801  0.20617614  0.44196548    -0.74700
O482        O  0.41805873  0.13329878  0.38702364    -0.74700
Ni483      Ni  0.35063636  0.16990771  0.37060995     1.25400
Ni484      Ni  0.39513164  0.17012488  0.41462948     1.25400
C485        C  0.40848804  0.12513647  0.35525002     0.87500
C486        C  0.33480945  0.20854934  0.43561905     0.87500
C487        C  0.40756967  0.20888979  0.35309520     0.87500
C488        C  0.34145540  0.12256994  0.42452474     0.87700
O489        O  0.12063216  0.90878109  0.39303985    -0.74600
O490        O  0.05548714  0.84665819  0.34734100    -0.74700
O491        O  0.05493876  0.90099779  0.40426950    -0.74700
O492        O  0.12112493  0.85701202  0.34015872    -0.74800
O493        O  0.13154906  0.81420239  0.37927705    -0.74700
O494        O  0.06751990  0.86038664  0.44484903    -0.74700
O495        O  0.06536854  0.80585925  0.38845316    -0.74700
O496        O  0.13335251  0.86623690  0.43183561    -0.74700
Ni497      Ni  0.08706763  0.87984366  0.36986075     1.25400
Ni498      Ni  0.09945312  0.83504407  0.41253470     1.25400
C499        C  0.13655696  0.89821546  0.42086716     0.87500
C500        C  0.05411870  0.81402083  0.35738692     0.87500
C501        C  0.05604329  0.89199563  0.43703260     0.87500
C502        C  0.13590526  0.82718477  0.34870133     0.87700
O503        O  0.79157172  0.04567619  0.32820904    -0.81100
O504        O  0.68785656  0.96169300  0.22911274    -0.65800
O505        O  0.76623374  0.98691763  0.28921704    -1.12400
C506        C  0.79780685  0.04592900  0.18324898     1.05800
O507        O  0.72244138  0.94432963  0.18568499    -0.79000
O508        O  0.79123633  0.94460638  0.19544199    -0.66600
Ni509      Ni  0.75695092  0.01108569  0.33440673     1.34900
C510        C  0.81498802  0.94500300  0.21923097     0.84500
O511        O  0.71120215  0.94201297  0.29840949    -0.79500
O512        O  0.72479662  0.97545022  0.34730731    -0.89800
C513        C  0.69206598  0.95134558  0.19659469     0.84100
O514        O  0.72152305  0.04574385  0.31800176    -0.68000
O515        O  0.78735189  0.01715579  0.16741399    -0.87300
C516        C  0.69634013  0.04232816  0.29603315     0.84900
C517        C  0.71482001  0.94601058  0.33252493     1.06500
H518        H  0.73342671  0.02439112  0.22294328     0.38300
O519        O  0.74745996  0.00272626  0.22624492    -1.10000
O520        O  0.81812231  0.97276600  0.24024761    -0.66600
Ni521      Ni  0.78774844  0.01525329  0.25419665     1.26300
O522        O  0.69446881  0.01410029  0.27560252    -0.66800
O523        O  0.80336802  0.04746388  0.21724217    -0.79100
C524        C  0.82206292  0.03696232  0.31851908     0.84300
O525        O  0.82672537  0.02634517  0.28613945    -0.66300
Ni526      Ni  0.75614536  0.98008047  0.18012139     1.27400
Ni527      Ni  0.72647677  0.97360354  0.26108920     1.26100
H528        H  0.78024114  0.96542640  0.29340859     0.38800
O529        O  0.78357499  0.20683661  0.91907154    -0.81100
O530        O  0.67596889  0.29054473  0.01688615    -0.65800
O531        O  0.75790961  0.26399952  0.96166998    -1.12400
C532        C  0.78729485  0.19251905  0.06463450     1.05800
O533        O  0.70840990  0.29823640  0.06391879    -0.79000
O534        O  0.77678858  0.29340936  0.06034089    -0.66600
Ni535      Ni  0.75059429  0.24572044  0.91383630     1.34900
C536        C  0.80136407  0.29379450  0.03815389     0.84500
O537        O  0.70471843  0.31643643  0.95226395    -0.79500
O538        O  0.71998030  0.28609151  0.90192979    -0.89800
C539        C  0.67853266  0.29447545  0.05065028     0.84100
O540        O  0.71488670  0.21251851  0.92570858    -0.68000
O541        O  0.77200845  0.21907185  0.08121124    -0.87300
C542        C  0.68962743  0.21542979  0.94713989     0.84900
C543        C  0.71012884  0.31550139  0.91819443     1.06500
H544        H  0.72079305  0.22252154  0.02035407     0.38300
O545        O  0.73534915  0.24317820  0.02071547    -1.10000
O546        O  0.80608336  0.26823209  0.01489399    -0.66600
Ni547      Ni  0.77712054  0.22974491  0.99510122     1.26300
O548        O  0.68559547  0.24310307  0.96774841    -0.66800
O549        O  0.79270197  0.19331661  0.03066207    -0.79100
C550        C  0.81370769  0.21087378  0.93165934     0.84300
O551        O  0.81721255  0.21856311  0.96491209    -0.66300
Ni552      Ni  0.74115434  0.25939248  0.06943717     1.27400
Ni553      Ni  0.71697948  0.27886226  0.98765181     1.26100
H554        H  0.77259090  0.28447221  0.96062564     0.38800
C555        C  0.24922039  0.21423581  0.73743943     0.80000
N556        N  0.22144388  0.23150621  0.75265104    -0.78300
C557        C  0.20615887  0.26065699  0.73747768     0.82500
N558        N  0.21975967  0.27315827  0.70756550    -0.78200
C559        C  0.24763913  0.25642167  0.69221071     0.82500
N560        N  0.26174879  0.22674879  0.70714686    -0.80000
C561        C  0.50765021  0.27854623  0.03355813     0.80000
N562        N  0.53256846  0.29480875  0.01569658    -0.78300
C563        C  0.54232533  0.28180924  0.98308935     0.82500
N564        N  0.52643255  0.25297092  0.96813888    -0.78200
C565        C  0.50131395  0.23666567  0.98543692     0.82500
N566        N  0.49197884  0.24974896  0.01805795    -0.80000
C567        C  0.50982193  0.52487428  0.68771940     0.80000
N568        N  0.53892233  0.51246892  0.70373739    -0.78300
C569        C  0.55317612  0.53074149  0.73170451     0.82500
N570        N  0.53779812  0.56209843  0.74376297    -0.78200
C571        C  0.50895303  0.57549366  0.72762162     0.82500
N572        N  0.49533950  0.55667250  0.69962525    -0.80000
C573        C  0.20756928  0.51156131  0.99165914     0.80000
N574        N  0.22052287  0.49895775  0.02274274    -0.78300
C575        C  0.24893262  0.51375506  0.03810897     0.82500
N576        N  0.26465365  0.54013970  0.02138325    -0.78200
C577        C  0.25290902  0.55205672  0.98997189     0.82500
N578        N  0.22416162  0.53792053  0.97554212    -0.80000
O579        O  0.38798513  0.64464065  0.82556707    -0.74600
O580        O  0.33259676  0.69348796  0.89721318    -0.74700
O581        O  0.38356896  0.71251681  0.84791500    -0.74700
O582        O  0.34004494  0.62665033  0.87320011    -0.74800
O583        O  0.38186626  0.61755812  0.91336708    -0.74700
O584        O  0.42681437  0.70230319  0.88578768    -0.74700
O585        O  0.37504643  0.68506321  0.93657800    -0.74700
O586        O  0.43016604  0.63456571  0.86510256    -0.74700
Ni587      Ni  0.35960706  0.67008678  0.85959240     1.25400
Ni588      Ni  0.40491212  0.65989188  0.90192116     1.25400
C589        C  0.41855877  0.63341778  0.83313841     0.87500
C590        C  0.34296450  0.69223887  0.92964078     0.87500
C591        C  0.41546029  0.71569405  0.85684518     0.87500
C592        C  0.35221661  0.61046572  0.90017078     0.87700
O593        O  0.63875141  0.44628553  0.85410755    -0.74600
O594        O  0.69870086  0.38082703  0.90678133    -0.74700
O595        O  0.70637674  0.43872072  0.85422227    -0.74700
O596        O  0.63248447  0.39413306  0.90223130    -0.74800
O597        O  0.63106355  0.35086025  0.85950894    -0.74700
O598        O  0.70083928  0.39927543  0.80902730    -0.74700
O599        O  0.69816259  0.34182256  0.86070333    -0.74700
O600        O  0.63370229  0.40319645  0.81162795    -0.74700
Ni601      Ni  0.66996073  0.41644575  0.88096519     1.25400
Ni602      Ni  0.66650610  0.37223071  0.83368033     1.25400
C603        C  0.62713640  0.43532293  0.82370922     0.87500
C604        C  0.70242020  0.34789806  0.89442402     0.87500
C605        C  0.70880626  0.43121894  0.82053144     0.87500
C606        C  0.62109624  0.36426224  0.88963238     0.87700
O607        O  0.33698857  0.37758342  0.62614874    -0.74600
O608        O  0.38968480  0.43217045  0.56392647    -0.74700
O609        O  0.33901517  0.37868188  0.55695525    -0.74700
O610        O  0.38594226  0.42765767  0.63260355    -0.74800
O611        O  0.42794840  0.38517921  0.63008504    -0.74700
O612        O  0.37704587  0.33248999  0.55820032    -0.74700
O613        O  0.42890983  0.38703042  0.56100353    -0.74700
O614        O  0.37797919  0.33404605  0.62728751    -0.74700
Ni615      Ni  0.36143181  0.40547986  0.59460211     1.25400
Ni616      Ni  0.40459784  0.35804148  0.59371533     1.25400
C617        C  0.34749460  0.34601796  0.63468528     0.87500
C618        C  0.42049674  0.42068947  0.55745759     0.87500
C619        C  0.34660383  0.34493126  0.55107797     0.87500
C620        C  0.41658603  0.41667808  0.64021456     0.87700
O621        O  0.32967119  0.39169456  0.12219993    -0.74600
O622        O  0.37022269  0.32873728  0.18983902    -0.74700
O623        O  0.31568656  0.38437918  0.18888094    -0.74700
O624        O  0.38194865  0.34115623  0.12320811    -0.74800
O625        O  0.41720170  0.38626436  0.13620643    -0.74700
O626        O  0.35488302  0.42268804  0.20847280    -0.74700
O627        O  0.41103876  0.36801947  0.20213387    -0.74700
O628        O  0.36370221  0.43602592  0.14084863    -0.74700
Ni629      Ni  0.34798968  0.35983918  0.15597650     1.25400
Ni630      Ni  0.38801722  0.40478113  0.17309852     1.25400
C631        C  0.33791127  0.42472615  0.12241828     0.87500
C632        C  0.40099376  0.33511902  0.20076394     0.87500
C633        C  0.32304322  0.41497178  0.20412243     0.87500
C634        C  0.41094636  0.35625745  0.12009309     0.87700
O635        O  0.38000562  0.14015024  0.91528756    -0.74600
O636        O  0.32909262  0.06458528  0.86873795    -0.74700
O637        O  0.38206977  0.07041141  0.92323665    -0.74700
O638        O  0.33014209  0.13461380  0.86436113    -0.74800
O639        O  0.36950776  0.12654457  0.82191782    -0.74700
O640        O  0.42361003  0.06509121  0.88316034    -0.74700
O641        O  0.37011476  0.05604708  0.82847046    -0.74700
O642        O  0.41961501  0.13431820  0.87291154    -0.74700
Ni643      Ni  0.35391579  0.10208963  0.89444520     1.25400
Ni644      Ni  0.39718506  0.09465831  0.85010407     1.25400
C645        C  0.40896071  0.14844188  0.90252853     0.87500
C646        C  0.33836580  0.05386639  0.83725179     0.87500
C647        C  0.41401228  0.06411491  0.91570486     0.87500
C648        C  0.34029808  0.13947180  0.83280499     0.87700
O649        O  0.11394694  0.34281234  0.85784825    -0.74600
O650        O  0.04368884  0.39209164  0.91296598    -0.74700
O651        O  0.04712386  0.33957231  0.85352259    -0.74700
O652        O  0.11109392  0.39265504  0.91256541    -0.74800
O653        O  0.10972704  0.43570224  0.87273087    -0.74700
O654        O  0.04275622  0.38473141  0.81649420    -0.74700
O655        O  0.04189901  0.43703102  0.87552551    -0.74700
O656        O  0.11055140  0.38568061  0.81782399    -0.74700
Ni657      Ni  0.07837525  0.36519126  0.88563381     1.25400
Ni658      Ni  0.07560042  0.41246104  0.84427140     1.25400
C659        C  0.12243204  0.35500263  0.82800531     0.87500
C660        C  0.03754846  0.42561884  0.90698788     0.87500
C661        C  0.04116342  0.35085110  0.82196326     0.87500
C662        C  0.12052333  0.42331583  0.90225216     0.87700
C663        C  0.73863973  0.78333526  0.25357959     0.80000
N664        N  0.76704117  0.77001396  0.23639339    -0.78300
C665        C  0.78948260  0.74698483  0.25257390     0.82500
N666        N  0.78275824  0.73667822  0.28582381    -0.78200
C667        C  0.75408660  0.74907883  0.30291499     0.82500
N668        N  0.73227241  0.77254188  0.28660532    -0.80000
O669        O  0.63645540  0.66937751  0.37540838    -0.74600
O670        O  0.57252724  0.61843873  0.42872836    -0.74700
O671        O  0.62393858  0.66912944  0.44336609    -0.74700
O672        O  0.58725485  0.62093078  0.36131225    -0.74800
O673        O  0.62420123  0.57419414  0.36785903    -0.74700
O674        O  0.66520533  0.62647303  0.44736471    -0.74700
O675        O  0.61113479  0.57355163  0.43567281    -0.74700
O676        O  0.67500105  0.62356860  0.37889035    -0.74700
Ni677      Ni  0.60369526  0.64597197  0.40232480     1.25400
Ni678      Ni  0.64536482  0.59768692  0.40818797     1.25400
C679        C  0.66673091  0.65580951  0.37021574     0.87500
C680        C  0.57952196  0.58542321  0.43569862     0.87500
C681        C  0.65431873  0.65931899  0.45351033     0.87500
C682        C  0.59691172  0.58823742  0.35393284     0.87700
C683        C  0.74121002  0.42969127  0.00082075     0.80000
N684        N  0.77013692  0.44292623  0.01604721    -0.78300
C685        C  0.78839291  0.46795128  0.99984041     0.82500
N686        N  0.77680581  0.48023149  0.96823223    -0.78200
C687        C  0.74780724  0.46745209  0.95262911     0.82500
N688        N  0.73066810  0.44180884  0.96898929    -0.80000
C689        C  0.48120958  0.79491784  0.01599987     0.80000
N690        N  0.45271361  0.77891725  0.02711616    -0.78300
C691        C  0.44520798  0.74531429  0.01472045     0.82500
N692        N  0.46695793  0.72753321  0.99170371    -0.78200
C693        C  0.49572762  0.74304443  0.98067182     0.82500
N694        N  0.50268570  0.77664508  0.99306428    -0.80000
C695        C  0.49325265  0.49591438  0.29667111     0.80000
N696        N  0.50157814  0.46298749  0.28187402    -0.78300
C697        C  0.48042083  0.44701881  0.25748707     0.82500
N698        N  0.45090393  0.46463244  0.24779983    -0.78200
C699        C  0.44230040  0.49768982  0.26219217     0.82500
N700        N  0.46363844  0.51297857  0.28650451    -0.80000
O701        O  0.35274359  0.61507036  0.17640100    -0.74600
O702        O  0.28698530  0.66418632  0.11704098    -0.74700
O703        O  0.28670371  0.60793842  0.17077660    -0.74700
O704        O  0.35331574  0.66557100  0.12647248    -0.74800
O705        O  0.36174842  0.62107001  0.08563693    -0.74700
O706        O  0.29097599  0.56787461  0.12556780    -0.74700
O707        O  0.29513575  0.62243515  0.07389957    -0.74700
O708        O  0.35764938  0.57025969  0.13519024    -0.74700
Ni709      Ni  0.31890953  0.63980762  0.14920620     1.25400
Ni710      Ni  0.32616626  0.59383022  0.10350130     1.25400
C711        C  0.36435718  0.58381111  0.16623756     0.87500
C712        C  0.28728965  0.65530873  0.08358174     0.87500
C713        C  0.28374492  0.57532108  0.15818811     0.87500
C714        C  0.36738313  0.65292577  0.09783763     0.87700
O715        O  0.64364455  0.37481419  0.11841222    -0.74600
O716        O  0.60569467  0.29319502  0.15835420    -0.74700
O717        O  0.65602199  0.30552252  0.10843076    -0.74700
O718        O  0.59549880  0.36291660  0.16738386    -0.74800
O719        O  0.55520250  0.36308767  0.12472587    -0.74700
O720        O  0.61659564  0.30278181  0.06515189    -0.74700
O721        O  0.56285432  0.29310569  0.11862637    -0.74700
O722        O  0.60483565  0.37235005  0.07433157    -0.74700
Ni723      Ni  0.62652217  0.33387347  0.13953769     1.25400
Ni724      Ni  0.58332389  0.33225842  0.09392642     1.25400
C725        C  0.63305416  0.38387747  0.08767434     0.87500
C726        C  0.57481084  0.28523422  0.14947396     0.87500
C727        C  0.64842353  0.30002052  0.07552497     0.87500
C728        C  0.56486117  0.37049300  0.15682718     0.87700
O729        O  0.62872245  0.66616487  0.90241263    -0.74600
O730        O  0.67492863  0.61938014  0.82236418    -0.74700
O731        O  0.62593952  0.67867653  0.83413035    -0.74700
O732        O  0.67551755  0.61001700  0.89066989    -0.74800
O733        O  0.63333336  0.57126487  0.88138450    -0.74700
O734        O  0.58162572  0.64212196  0.83000269    -0.74700
O735        O  0.62945981  0.58501107  0.81374668    -0.74700
O736        O  0.58732660  0.62591520  0.89693321    -0.74700
Ni737      Ni  0.65286352  0.64513967  0.86229851     1.25400
Ni738      Ni  0.60643486  0.60481694  0.85495364     1.25400
C739        C  0.59955423  0.65443387  0.91153268     0.87500
C740        C  0.66133825  0.59086310  0.80863461     0.87500
C741        C  0.59377633  0.67367792  0.82771978     0.87500
C742        C  0.66364772  0.57838411  0.89269279     0.87700
O743        O  0.86578356  0.60081970  0.07667485    -0.74600
O744        O  0.93191235  0.66122772  0.12256983    -0.74700
O745        O  0.93261307  0.60109120  0.07155294    -0.74700
O746        O  0.86506224  0.65700928  0.12509679    -0.74800
O747        O  0.86901660  0.61678035  0.16765187    -0.74700
O748        O  0.94055186  0.56447416  0.11640137    -0.74700
O749        O  0.93528760  0.62465333  0.16785034    -0.74700
O750        O  0.87318656  0.56052744  0.11881928    -0.74700
Ni751      Ni  0.89913580  0.63145897  0.09737611     1.25400
Ni752      Ni  0.90520610  0.59017982  0.14428126     1.25400
C753        C  0.86059355  0.56973885  0.08874243     0.87500
C754        C  0.93875542  0.65619461  0.15549012     0.87500
C755        C  0.94182198  0.56988655  0.08296715     0.87500
C756        C  0.85755997  0.64693416  0.15611315     0.87700
O757        O  0.64935741  0.86188458  0.14072336    -0.74600
O758        O  0.61872885  0.94161110  0.08749608    -0.74700
O759        O  0.66930441  0.92909984  0.14070958    -0.74700
O760        O  0.60080247  0.87464978  0.09089590    -0.74800
O761        O  0.56355513  0.88742058  0.13469986    -0.74700
O762        O  0.63092672  0.94690518  0.18167891    -0.74700
O763        O  0.57761217  0.95486320  0.12689901    -0.74700
O764        O  0.61384797  0.87853281  0.18498042    -0.74700
Ni765      Ni  0.63603295  0.90166603  0.11356911     1.25400
Ni766      Ni  0.59523532  0.91812662  0.15877447     1.25400
C767        C  0.63801802  0.85785258  0.17192669     0.87500
C768        C  0.58870408  0.95499754  0.09476575     0.87500
C769        C  0.66247090  0.94285828  0.17178857     0.87500
C770        C  0.57059825  0.87349579  0.10397436     0.87700
O771        O  0.67662343  0.46442963  0.70000514    -0.81100
O772        O  0.78248548  0.53316976  0.80453715    -0.65800
O773        O  0.71730208  0.51913712  0.72678027    -1.12400
C774        C  0.81431670  0.45889475  0.67701507     1.05800
O775        O  0.82183676  0.55035662  0.76734467    -0.79000
O776        O  0.79772730  0.55954986  0.69965137    -0.66600
Ni777      Ni  0.67294296  0.50093978  0.73669445     1.34900
C778        C  0.77745746  0.55621808  0.67290945     0.84500
O779        O  0.71506023  0.55948715  0.79199783    -0.79500
O780        O  0.66438286  0.53894134  0.77153985    -0.89800
C781        C  0.81311692  0.54273887  0.79851292     0.84100
O782        O  0.68659755  0.46509622  0.77142715    -0.68000
O783        O  0.82588454  0.49029801  0.68260606    -0.87300
C784        C  0.71134388  0.46165905  0.79385232     0.84900
C785        C  0.68199029  0.56206164  0.78903757     1.06500
H786        H  0.78525381  0.47507216  0.74965336     0.38300
O787        O  0.77924164  0.49730168  0.73809988    -1.10000
O788        O  0.76058031  0.52739104  0.66794814    -0.66600
Ni789      Ni  0.74804116  0.48777054  0.69887019     1.26300
O790        O  0.73572755  0.48423829  0.79505978    -0.66800
O791        O  0.78177668  0.45379417  0.67756653    -0.79100
C792        C  0.68299758  0.47195307  0.66821731     0.84300
O793        O  0.71380408  0.47963217  0.66081995    -0.66300
Ni794      Ni  0.82061828  0.52044843  0.72495017     1.27400
Ni795      Ni  0.74802741  0.52660433  0.76704288     1.26100
H796        H  0.71383998  0.54179028  0.71513891     0.38800
O797        O  0.96029005  0.03348627  0.58982616    -0.81100
O798        O  0.04079149  0.91631002  0.49724423    -0.65800
O799        O  0.01602870  0.00297959  0.55467890    -1.12400
C800        C  0.95741182  0.03313118  0.44540498     1.05800
O801        O  0.05708138  0.95321458  0.45764892    -0.79000
O802        O  0.05144403  0.02542921  0.45922738    -0.66600
Ni803      Ni  0.99443019  0.99737314  0.59970372     1.34900
C804        C  0.05082529  0.05145208  0.48240554     0.84500
O805        O  0.05977965  0.94292270  0.56773599    -0.79500
O806        O  0.02996117  0.96363761  0.61550318    -0.89800
C807        C  0.05013773  0.92133214  0.46535633     0.84100
O808        O  0.96134027  0.96155385  0.58358545    -0.68000
O809        O  0.98314032  0.01666310  0.43071856    -0.87300
C810        C  0.96239812  0.93534216  0.56058331     0.84900
C811        C  0.05755955  0.94994347  0.60171932     1.06500
H812        H  0.97974900  0.96735693  0.48805213     0.38300
O813        O  0.00029131  0.98106142  0.49186104    -1.10000
O814        O  0.02642483  0.05498540  0.50475619    -0.66600
Ni815      Ni  0.98773704  0.02510021  0.51800510     1.26300
O816        O  0.98910732  0.92950511  0.54124668    -0.66800
O817        O  0.95682661  0.04154678  0.47914798    -0.79100
C818        C  0.96811074  0.06455036  0.58030306     0.84300
O819        O  0.97696423  0.06796594  0.54816292    -0.66300
Ni820      Ni  0.02084554  0.98622354  0.44640576     1.27400
Ni821      Ni  0.02876648  0.95891997  0.52840710     1.26100
H822        H  0.03646538  0.01678488  0.55880637     0.38800
C823        C  0.49348200  0.99444964  0.82623248     0.80000
N824        N  0.46441546  0.00731306  0.81034781    -0.78300
C825        C  0.45218063  0.99178550  0.77993623     0.82500
N826        N  0.46913249  0.96224174  0.76574310    -0.78200
C827        C  0.49796263  0.94832180  0.78149846     0.82500
N828        N  0.51001355  0.96486183  0.81156980    -0.80000
C829        C  0.75518801  0.00659026  0.47322062     0.80000
N830        N  0.78380937  0.02232790  0.48663096    -0.78300
C831        C  0.79750410  0.01215668  0.51818841     0.82500
N832        N  0.78167449  0.98689390  0.53678134    -0.78200
C833        C  0.75314617  0.97102278  0.52359262     0.82500
N834        N  0.74027262  0.98111150  0.49194597    -0.80000
C835        C  0.45559700  0.23577626  0.50703952     0.80000
N836        N  0.46340909  0.26981955  0.51759863    -0.78300
C837        C  0.48531652  0.28899998  0.49867248     0.82500
N838        N  0.49993825  0.27334100  0.46903444    -0.78200
C839        C  0.49217062  0.23929682  0.45801554     0.82500
N840        N  0.47006743  0.22080360  0.47736659    -0.80000
O841        O  0.61664308  0.16343815  0.36642444    -0.74600
O842        O  0.67418993  0.10470062  0.30266260    -0.74700
O843        O  0.61674589  0.15711265  0.29720355    -0.74700
O844        O  0.67040441  0.11495522  0.37144451    -0.74800
O845        O  0.63536652  0.06847587  0.37049467    -0.74700
O846        O  0.57707686  0.11594780  0.30147777    -0.74700
O847        O  0.63544138  0.06198670  0.30071546    -0.74700
O848        O  0.58163675  0.11731843  0.37017900    -0.74700
Ni849      Ni  0.64583881  0.13661718  0.33369268     1.25400
Ni850      Ni  0.60606145  0.08910228  0.33504085     1.25400
C851        C  0.58896440  0.15013890  0.37773516     0.87500
C852        C  0.66702328  0.07115897  0.29754116     0.87500
C853        C  0.58485868  0.14864533  0.29523024     0.87500
C854        C  0.66271873  0.08385448  0.38177807     0.87700
O855        O  0.37617102  0.11570610  0.68910347    -0.74600
O856        O  0.31839446  0.17408963  0.62855258    -0.74700
O857        O  0.30912984  0.12634859  0.68629191    -0.74700
O858        O  0.38478450  0.16095303  0.63526988    -0.74800
O859        O  0.37988046  0.11593151  0.59472469    -0.74700
O860        O  0.30818874  0.07761409  0.65027878    -0.74700
O861        O  0.31280841  0.12637429  0.59173039    -0.74700
O862        O  0.37491870  0.07002825  0.64890787    -0.74700
Ni863      Ni  0.34678465  0.14599849  0.66120165     1.25400
Ni864      Ni  0.34324861  0.09588736  0.61989143     1.25400
C865        C  0.38383672  0.08289238  0.67945655     0.87500
C866        C  0.31100810  0.16090341  0.59741943     0.87500
C867        C  0.30178498  0.09307349  0.68068156     0.87500
C868        C  0.39311174  0.14562941  0.60551481     0.87700
C869        C  0.78026707  0.26980839  0.74756723     0.80000
N870        N  0.76383111  0.25523277  0.77485212    -0.78300
C871        C  0.73136482  0.26624641  0.78354242     0.82500
N872        N  0.71533281  0.29197090  0.76446679    -0.78200
C873        C  0.73100856  0.30678859  0.73695366     0.82500
N874        N  0.76344734  0.29532519  0.72833026    -0.80000
O875        O  0.65383950  0.38970084  0.60852492    -0.74600
O876        O  0.60341126  0.46257915  0.55788187    -0.74700
O877        O  0.66099396  0.45966339  0.60806802    -0.74700
O878        O  0.60043760  0.39264861  0.56117478    -0.74800
O879        O  0.56236278  0.40119246  0.60486270    -0.74700
O880        O  0.62375767  0.46588371  0.65250398    -0.74700
O881        O  0.56799479  0.47164834  0.60349370    -0.74700
O882        O  0.61530777  0.39625235  0.65200190    -0.74700
Ni883      Ni  0.63111534  0.42650318  0.58216689     1.25400
Ni884      Ni  0.59108319  0.43449169  0.62979929     1.25400
C885        C  0.64330260  0.38222655  0.63939301     0.87500
C886        C  0.57343325  0.47194781  0.57002228     0.87500
C887        C  0.65468691  0.46730734  0.64101498     0.87500
C888        C  0.57096008  0.38724367  0.57450378     0.87700
O889        O  0.67346469  0.88662007  0.64180606    -0.74600
O890        O  0.63192504  0.80487935  0.67988300    -0.74700
O891        O  0.68173934  0.81729349  0.62585184    -0.74700
O892        O  0.62555627  0.87478245  0.69241957    -0.74800
O893        O  0.58508008  0.88053290  0.65037933    -0.74700
O894        O  0.63744057  0.81741457  0.58788312    -0.74700
O895        O  0.58725819  0.81039907  0.64280691    -0.74700
O896        O  0.63288274  0.88764748  0.59936930    -0.74700
Ni897      Ni  0.65477151  0.84531761  0.66144539     1.25400
Ni898      Ni  0.60925051  0.84866026  0.61848896     1.25400
C899        C  0.66145504  0.89849253  0.61262616     0.87500
C900        C  0.59981538  0.80056239  0.67280448     0.87500
C901        C  0.66991386  0.81277341  0.59393859     0.87500
C902        C  0.59522751  0.88529215  0.68251474     0.87700
O903        O  0.89151861  0.13550830  0.59309229    -0.74600
O904        O  0.95904959  0.18529063  0.64960688    -0.74700
O905        O  0.95883886  0.12826137  0.59553591    -0.74700
O906        O  0.89182735  0.18973782  0.64396406    -0.74800
O907        O  0.88844619  0.14980455  0.68652004    -0.74700
O908        O  0.95487908  0.08865071  0.63815607    -0.74700
O909        O  0.95593664  0.14469205  0.69139325    -0.74700
O910        O  0.88772548  0.09578323  0.63584500    -0.74700
Ni911      Ni  0.92599811  0.16120656  0.61904163     1.25400
Ni912      Ni  0.92204767  0.11826301  0.66449881     1.25400
C913        C  0.87984864  0.10635072  0.60472421     0.87500
C914        C  0.96269410  0.17656012  0.68221921     0.87500
C915        C  0.96192970  0.09572819  0.60597708     0.87500
C916        C  0.88013160  0.18045044  0.67378643     0.87700
O917        O  0.61625626  0.09103819  0.88403063    -0.74600
O918        O  0.67336742  0.15326877  0.94035144    -0.74700
O919        O  0.62388671  0.09892704  0.95261660    -0.74700
O920        O  0.66240959  0.14241404  0.87251145    -0.74800
O921        O  0.62122385  0.18577652  0.87581673    -0.74700
O922        O  0.57994828  0.13888857  0.95332848    -0.74700
O923        O  0.63061977  0.19459181  0.94468960    -0.74700
O924        O  0.57429509  0.13363757  0.88458665    -0.74700
Ni925      Ni  0.64553523  0.11996846  0.91282384     1.25400
Ni926      Ni  0.60005834  0.16494171  0.91519136     1.25400
C927        C  0.58519536  0.10125671  0.87728892     0.87500
C928        C  0.66314475  0.18633438  0.94573873     0.87500
C929        C  0.59212506  0.10706776  0.95971530     0.87500
C930        C  0.64958309  0.17274729  0.86294621     0.87700
C931        C  0.01757069  0.77379403  0.53805467     0.80000
N932        N  0.03188644  0.76500397  0.50611407    -0.78300
C933        C  0.01502848  0.74439463  0.48159787     0.82500
N934        N  0.98364135  0.73207063  0.48960442    -0.78200
C935        C  0.96897362  0.74084980  0.52136739     0.82500
N936        N  0.98620404  0.76151583  0.54557074    -0.80000
O937        O  0.13256247  0.57891144  0.36983996    -0.74600
O938        O  0.07235123  0.62512442  0.30211214    -0.74700
O939        O  0.12587644  0.56764275  0.30087005    -0.74700
O940        O  0.08209934  0.63093282  0.37068115    -0.74800
O941        O  0.11940747  0.67397852  0.36127409    -0.74700
O942        O  0.16720239  0.60693622  0.29584637    -0.74700
O943        O  0.11262450  0.66433605  0.29175900    -0.74700
O944        O  0.17030649  0.62222565  0.36372800    -0.74700
Ni945      Ni  0.10173157  0.59906899  0.33546987     1.25400
Ni946      Ni  0.14375171  0.64336544  0.32701675     1.25400
C947        C  0.16168267  0.59281094  0.37727185     0.87500
C948        C  0.08049804  0.65681132  0.29267618     0.87500
C949        C  0.15761877  0.57380706  0.29473348     0.87500
C950        C  0.09253411  0.66295872  0.37651128     0.87700
C951        C  0.30972980  0.75202721  0.79095449     0.80000
N952        N  0.29609693  0.78453813  0.78159889    -0.78300
C953        C  0.26685869  0.79838125  0.79668828     0.82500
N954        N  0.25167652  0.77945767  0.82168773    -0.78200
C955        C  0.26387707  0.74657865  0.83070223     0.82500
N956        N  0.29296990  0.73281430  0.81504206    -0.80000
C957        C  0.26617035  0.47204200  0.50658285     0.80000
N958        N  0.25123894  0.48634475  0.47760246    -0.78300
C959        C  0.25922722  0.51939201  0.46694366     0.82500
N960        N  0.28277605  0.53862676  0.48588390    -0.78200
C961        C  0.29866156  0.52437627  0.51475919     0.82500
N962        N  0.28984964  0.49131341  0.52510209    -0.80000
O963        O  0.39858505  0.59779653  0.63391250    -0.74600
O964        O  0.46998567  0.65028950  0.68321888    -0.74700
O965        O  0.40342734  0.64539203  0.68990373    -0.74700
O966        O  0.46525290  0.59734335  0.62322452    -0.74800
O967        O  0.45653921  0.64196012  0.58608594    -0.74700
O968        O  0.39682994  0.69185657  0.65426080    -0.74700
O969        O  0.46397294  0.69414425  0.64490473    -0.74700
O970        O  0.39002531  0.64402150  0.59833025    -0.74700
Ni971      Ni  0.43531364  0.62106011  0.65878733     1.25400
Ni972      Ni  0.42714129  0.66964485  0.61948889     1.25400
C973        C  0.38308765  0.61223239  0.60750735     0.87500
C974        C  0.47266844  0.68387466  0.67609491     0.87500
C975        C  0.39092489  0.67685682  0.68362074     0.87500
C976        C  0.46499114  0.60858195  0.59129878     0.87700
C977        C  0.99418973  0.50952944  0.78489809     0.80000
N978        N  0.01225780  0.48344461  0.76661399    -0.78300
C979        C  0.00220537  0.47131554  0.73420118     0.82500
N980        N  0.97281732  0.48513387  0.71995094    -0.78200
C981        C  0.95356512  0.51085768  0.73800176     0.82500
N982        N  0.96488295  0.52381015  0.77024518    -0.80000
O983        O  0.09750630  0.39059407  0.61777600    -0.74600
O984        O  0.14132498  0.30515241  0.57702516    -0.74700
O985        O  0.08804556  0.32226290  0.62937599    -0.74700
O986        O  0.14875848  0.37539747  0.57042966    -0.74800
O987        O  0.18560605  0.37872796  0.61614122    -0.74700
O988        O  0.12953125  0.31943667  0.67035047    -0.74700
O989        O  0.18291920  0.30857316  0.61781412    -0.74700
O990        O  0.13436374  0.38930820  0.66362796    -0.74700
Ni991      Ni  0.11741958  0.34773605  0.59698851     1.25400
Ni992      Ni  0.15945246  0.34847966  0.64358777     1.25400
C993        C  0.10689696  0.40190152  0.64867896     0.87500
C994        C  0.17290344  0.29916342  0.58617682     0.87500
C995        C  0.09751535  0.31717629  0.66187518     0.87500
C996        C  0.17748013  0.38556864  0.58416301     0.87700
O997        O  0.85602987  0.62695770  0.56786071    -0.74600
O998        O  0.78490280  0.57491129  0.61239534    -0.74700
O999        O  0.78867064  0.62829264  0.55804591    -0.74700
O1000       O  0.85236613  0.57721057  0.61848966    -0.74800
O1001       O  0.84730973  0.62116151  0.66035948    -0.74700
O1002       O  0.78397502  0.67231965  0.59952293    -0.74700
O1003       O  0.78037280  0.61833238  0.65442793    -0.74700
O1004       O  0.85050855  0.67068363  0.60992847    -0.74700
Ni1005     Ni  0.82004851  0.60022193  0.58760007     1.25400
Ni1006     Ni  0.81453744  0.64724738  0.63246902     1.25400
C1007       C  0.86447118  0.65767057  0.58142339     0.87500
C1008       C  0.77811985  0.58473739  0.64481249     0.87500
C1009       C  0.78272853  0.66186167  0.56650323     0.87500
C1010       C  0.85978736  0.59039637  0.64945815     0.87700
O1011       O  0.08696339  0.86717690  0.66741131    -0.74600
O1012       O  0.13395582  0.94565712  0.71489554    -0.74700
O1013       O  0.07967095  0.93753550  0.66103855    -0.74700
O1014       O  0.13798739  0.87516420  0.71705560    -0.74800
O1015       O  0.17727989  0.87333699  0.67426772    -0.74700
O1016       O  0.11799228  0.93430158  0.61762426    -0.74700
O1017       O  0.17293823  0.94324985  0.67225846    -0.74700
O1018       O  0.12681420  0.86467476  0.62511142    -0.74700
Ni1019     Ni  0.10809070  0.90705334  0.69153920     1.25400
Ni1020     Ni  0.15003910  0.90456332  0.64565734     1.25400
C1021       C  0.09897408  0.85363797  0.63813997     0.87500
C1022       C  0.16513022  0.95017908  0.70513123     0.87500
C1023       C  0.08667507  0.94038942  0.62783441     0.87500
C1024       C  0.16803637  0.86589571  0.70555772     0.87700
O1025       O  0.13268991  0.66663886  0.89094130    -0.74600
O1026       O  0.07836061  0.60917565  0.95061781    -0.74700
O1027       O  0.13159439  0.66037236  0.96027879    -0.74700
O1028       O  0.08115116  0.61904172  0.88270259    -0.74800
O1029       O  0.11805888  0.57164720  0.88124484    -0.74700
O1030       O  0.17492510  0.62033271  0.95219830    -0.74700
O1031       O  0.12130730  0.56792652  0.95062923    -0.74700
O1032       O  0.16966894  0.61983532  0.88274973    -0.74700
Ni1033     Ni  0.10458928  0.64049580  0.92173490     1.25400
Ni1034     Ni  0.14745990  0.59314951  0.91695565     1.25400
C1035       C  0.16096279  0.65284671  0.87835587     0.87500
C1036       C  0.08933560  0.57662693  0.95552721     0.87500
C1037       C  0.16374029  0.65165985  0.96381431     0.87500
C1038       C  0.08942152  0.58699648  0.87176199     0.87700
C1039       C  0.70848772  0.22997635  0.24413704     0.80000
N1040       N  0.72610558  0.20409417  0.26197965    -0.78300
C1041       C  0.75708581  0.19099059  0.25053614     0.82500
N1042       N  0.77054694  0.20425226  0.22103154    -0.78200
C1043       C  0.75381428  0.23038448  0.20296617     0.82500
N1044       N  0.72276605  0.24336393  0.21483026    -0.80000
O1045       O  0.60134467  0.40706633  0.36580578    -0.74600
O1046       O  0.53863324  0.34577156  0.31408707    -0.74700
O1047       O  0.53456514  0.40638292  0.36623033    -0.74700
O1048       O  0.60548179  0.35155503  0.31606631    -0.74800
O1049       O  0.60794537  0.31129553  0.35861362    -0.74700
O1050       O  0.53722920  0.36581690  0.40827892    -0.74700
O1051       O  0.54037539  0.30740655  0.35811660    -0.74700
O1052       O  0.60440406  0.36666988  0.40822379    -0.74700
Ni1053     Ni  0.56931294  0.37907408  0.33881500     1.25400
Ni1054     Ni  0.57224284  0.33640594  0.38481152     1.25400
C1055       C  0.61118799  0.39765149  0.39678601     0.87500
C1056       C  0.53487995  0.31371596  0.32536189     0.87500
C1057       C  0.53018964  0.39821285  0.39868389     0.87500
C1058       C  0.61712217  0.32172342  0.32817439     0.87700
C1059       C  0.69049989  0.48880581  0.48507154     0.80000
N1060       N  0.71199940  0.46844517  0.50549862    -0.78300
C1061       C  0.74554499  0.47651579  0.50975022     0.82500
N1062       N  0.75768893  0.50485519  0.49282060    -0.78200
C1063       C  0.73664612  0.52532814  0.47242279     0.82500
N1064       N  0.70316301  0.51738717  0.46874334    -0.80000
C1065       C  0.00040908  0.48823429  0.19226477     0.80000
N1066       N  0.02564583  0.47403940  0.21317391    -0.78300
C1067       C  0.03385729  0.49012994  0.24495383     0.82500
N1068       N  0.01572704  0.52027230  0.25605295    -0.78200
C1069       C  0.99060570  0.53488115  0.23536860     0.82500
N1070       N  0.98353638  0.51902801  0.20347633    -0.80000
C1071       C  0.02440742  0.18361396  0.51563191     0.80000
N1072       N  0.00791865  0.19575091  0.54541057    -0.78300
C1073       C  0.01680165  0.22671389  0.56262579     0.82500
N1074       N  0.04295667  0.24563248  0.54979821    -0.78200
C1075       C  0.06050198  0.23345693  0.52060385     0.82500
N1076       N  0.05100939  0.20229693  0.50392582    -0.80000
O1077       O  0.11742275  0.32500325  0.39325441    -0.74600
O1078       O  0.18074315  0.38308608  0.34468415    -0.74700
O1079       O  0.18395741  0.32874986  0.39856732    -0.74700
O1080       O  0.11413418  0.37456938  0.34181501    -0.74800
O1081       O  0.10754807  0.41922241  0.38274814    -0.74700
O1082       O  0.17652603  0.37221634  0.44037174    -0.74700
O1083       O  0.17471263  0.42585893  0.38745754    -0.74700
O1084       O  0.10981225  0.36916663  0.43450403    -0.74700
Ni1085     Ni  0.14975105  0.35138897  0.36802670     1.25400
Ni1086     Ni  0.14224782  0.39828366  0.41272934     1.25400
C1087       C  0.10612913  0.33644501  0.42360140     0.87500
C1088       C  0.18373595  0.41622123  0.35570439     0.87500
C1089       C  0.18644055  0.33969406  0.43124418     0.87500
C1090       C  0.10099362  0.40528000  0.35184503     0.87700
O1091       O  0.92356741  0.36086529  0.60917991    -0.74600
O1092       O  0.86990009  0.43577496  0.65754566    -0.74700
O1093       O  0.92568383  0.38695182  0.67459961    -0.74700
O1094       O  0.87099101  0.40739852  0.59188241    -0.74800
O1095       O  0.83328277  0.36612744  0.60560441    -0.74700
O1096       O  0.88589697  0.34867995  0.68975263    -0.74700
O1097       O  0.83061603  0.39586000  0.67020332    -0.74700
O1098       O  0.88574367  0.32025001  0.62459563    -0.74700
Ni1099     Ni  0.89877057  0.39950290  0.63302825     1.25400
Ni1100     Ni  0.85749845  0.35643547  0.64844149     1.25400
C1101       C  0.91455011  0.32811102  0.61125984     0.87500
C1102       C  0.83944336  0.42871989  0.66786340     0.87500
C1103       C  0.91722474  0.35900395  0.69107118     0.87500
C1104       C  0.84278863  0.39118621  0.58585001     0.87700
O1105       O  0.82531520  0.35737254  0.12180058    -0.74600
O1106       O  0.86435933  0.41230839  0.04973133    -0.74700
O1107       O  0.81547591  0.35570282  0.05318149    -0.74700
O1108       O  0.87255010  0.40977598  0.11857456    -0.74800
O1109       O  0.91247087  0.36516921  0.11463802    -0.74700
O1110       O  0.85920907  0.31691065  0.04212365    -0.74700
O1111       O  0.90945567  0.37405189  0.04646818    -0.74700
O1112       O  0.86465212  0.31308618  0.11162690    -0.74700
Ni1113     Ni  0.84283599  0.38534294  0.08560918     1.25400
Ni1114     Ni  0.88796093  0.34069838  0.07787718     1.25400
C1115       C  0.83671688  0.32517367  0.12631518     0.87500
C1116       C  0.89632120  0.40609872  0.04280299     0.87500
C1117       C  0.82657554  0.32402771  0.04250482     0.87500
C1118       C  0.90281189  0.39687966  0.12545959     0.87700
O1119       O  0.85524902  0.62326049  0.30146369    -0.74600
O1120       O  0.81474787  0.68659112  0.37481432    -0.74700
O1121       O  0.86859218  0.68968079  0.32299029    -0.74700
O1122       O  0.80319326  0.62081820  0.34973298    -0.74800
O1123       O  0.84053806  0.60072674  0.39075663    -0.74700
O1124       O  0.90652176  0.66683850  0.36166505    -0.74700
O1125       O  0.85456688  0.66681829  0.41310421    -0.74700
O1126       O  0.89063719  0.60051018  0.34282253    -0.74700
Ni1127     Ni  0.83404055  0.65636329  0.33587410     1.25400
Ni1128     Ni  0.87440232  0.63337795  0.37858194     1.25400
C1129       C  0.88040571  0.60219744  0.31061411     0.87500
C1130       C  0.82568709  0.68322601  0.40702960     0.87500
C1131       C  0.89983331  0.68489291  0.33384034     0.87500
C1132       C  0.81096277  0.60067765  0.37557132     0.87700
O1133       O  0.88550413  0.11866760  0.33529508    -0.74600
O1134       O  0.93552853  0.04690690  0.38717769    -0.74700
O1135       O  0.88203158  0.04832434  0.33340805    -0.74700
O1136       O  0.93652060  0.11720665  0.38560796    -0.74800
O1137       O  0.89618984  0.12304125  0.42737944    -0.74700
O1138       O  0.84413995  0.05130856  0.37735023    -0.74700
O1139       O  0.89831455  0.05336429  0.43151812    -0.74700
O1140       O  0.84541358  0.12161040  0.37732617    -0.74700
Ni1141     Ni  0.91134610  0.08219648  0.35884227     1.25400
Ni1142     Ni  0.86950021  0.08694723  0.40489738     1.25400
C1143       C  0.85588312  0.12957373  0.34659485     0.87500
C1144       C  0.92868567  0.04438763  0.42036038     0.87500
C1145       C  0.85124591  0.04433808  0.34436963     0.87500
C1146       C  0.92641228  0.12876099  0.41632392     0.87700
O1147       O  0.93524067  0.29974803  0.70183221    -0.81100
O1148       O  0.03538927  0.19812200  0.78304176    -0.65800
O1149       O  0.97644003  0.27995876  0.75787098    -1.12400
C1150       C  0.07203287  0.31106587  0.69131236     1.05800
O1151       O  0.08558306  0.22522816  0.77922815    -0.79000
O1152       O  0.06065949  0.29571786  0.79234591    -0.66600
Ni1153     Ni  0.93052274  0.27118137  0.74185798     1.34900
C1154       C  0.04100098  0.32401336  0.79053331     0.84500
O1155       O  0.97155215  0.22414254  0.80617814    -0.79500
O1156       O  0.92114013  0.24312385  0.78214600    -0.89800
C1157       C  0.06820174  0.19795949  0.78624550     0.84100
O1158       O  0.94177550  0.23038376  0.71060832    -0.68000
O1159       O  0.08343269  0.30929927  0.72305830    -0.87300
C1160       C  0.96527400  0.20570043  0.71038452     0.84900
C1161       C  0.93847542  0.22842263  0.80693052     1.06500
H1162       H  0.03733071  0.24007231  0.71510195     0.38300
O1163       O  0.03535409  0.25655543  0.73554233    -1.10000
O1164       O  0.02525661  0.33137464  0.76130907    -0.66600
Ni1165     Ni  0.00691544  0.29841062  0.72334037     1.26300
O1166       O  0.98847639  0.20424203  0.73433837    -0.66800
O1167       O  0.03936526  0.31121724  0.68634899    -0.79100
C1168       C  0.94372080  0.33231786  0.70400267     0.84300
O1169       O  0.97498514  0.33901360  0.71209808    -0.66300
Ni1170     Ni  0.08045419  0.26795694  0.75225397     1.27400
Ni1171     Ni  0.00467691  0.23857069  0.77064977     1.26100
H1172       H  0.97476739  0.29645534  0.77831593     0.38800
C1173       C  0.96933280  0.26354417  0.95131325     0.80000
N1174       N  0.94240144  0.24794083  0.96648226    -0.78300
C1175       C  0.92898389  0.26132887  0.99742633     0.82500
N1176       N  0.94227571  0.29143235  0.01262040    -0.78200
C1177       C  0.96945566  0.30729360  0.99845967     0.82500
N1178       N  0.98287536  0.29305965  0.96774417    -0.80000
O1179       O  0.05982781  0.37027956  0.12869282    -0.74600
O1180       O  0.11308312  0.43799051  0.18356717    -0.74700
O1181       O  0.05997870  0.44062105  0.12936602    -0.74700
O1182       O  0.11003009  0.36719230  0.18013050    -0.74800
O1183       O  0.14934774  0.36349948  0.13732950    -0.74700
O1184       O  0.10135843  0.43809982  0.08886303    -0.74700
O1185       O  0.15293165  0.43385181  0.14142526    -0.74700
O1186       O  0.09966828  0.36788878  0.08640360    -0.74700
Ni1187     Ni  0.08426548  0.40456266  0.15713520     1.25400
Ni1188     Ni  0.12728958  0.40109100  0.11213244     1.25400
C1189       C  0.06963093  0.36102987  0.09717442     0.87500
C1190       C  0.14423741  0.44154731  0.17361970     0.87500
C1191       C  0.06994489  0.44523091  0.09746750     0.87500
C1192       C  0.13869797  0.35455372  0.16762919     0.87700
C1193       C  0.98598585  0.94583359  0.27829264     0.80000
N1194       N  0.99584105  0.96225874  0.30923171    -0.78300
C1195       C  0.98300076  0.99537499  0.31928195     0.82500
N1196       N  0.95967962  0.01199545  0.29799506    -0.78200
C1197       C  0.94945679  0.99637933  0.26678000     0.82500
N1198       N  0.96295631  0.96330140  0.25689445    -0.80000
C1199       C  0.22861283  0.22269140  0.29518991     0.80000
N1200       N  0.25715098  0.20690213  0.27986943    -0.78300
C1201       C  0.27197902  0.22236909  0.25199131     0.82500
N1202       N  0.25746996  0.25296515  0.23910954    -0.78200
C1203       C  0.22875978  0.26849613  0.25367507     0.82500
N1204       N  0.21459541  0.25323595  0.28171165    -0.80000
O1205       O  0.10719572  0.06888552  0.40454069    -0.74600
O1206       O  0.16450776  0.11952842  0.47170920    -0.74700
O1207       O  0.10994316  0.06784767  0.47375114    -0.74700
O1208       O  0.15834293  0.11608080  0.40244665    -0.74800
O1209       O  0.11955992  0.16182759  0.40537507    -0.74700
O1210       O  0.07127084  0.11314754  0.47790416    -0.74700
O1211       O  0.12645516  0.16552222  0.47481463    -0.74700
O1212       O  0.06823242  0.11450339  0.40826013    -0.74700
Ni1213     Ni  0.13646543  0.09152329  0.43870190     1.25400
Ni1214     Ni  0.09499373  0.14049143  0.44245629     1.25400
C1215       C  0.07777739  0.08300904  0.39647451     0.87500
C1216       C  0.15778060  0.15354708  0.47748364     0.87500
C1217       C  0.07896257  0.07918374  0.48054779     0.87500
C1218       C  0.14719276  0.14693462  0.39250466     0.87700
C1219       C  0.23023836  0.97576797  0.04403395     0.80000
N1220       N  0.21164858  0.99097335  0.01760163    -0.78300
C1221       C  0.22706064  0.01092823  0.99348358     0.82500
N1222       N  0.26140892  0.01596739  0.99613556    -0.78200
C1223       C  0.28043279  0.00066536  0.02239783     0.82500
N1224       N  0.26450523  0.98076953  0.04638853    -0.80000
O1225       O  0.38628269  0.11659506  0.07491340    -0.74600
O1226       O  0.44205124  0.18290509  0.12931763    -0.74700
O1227       O  0.45199602  0.13119108  0.07088452    -0.74700
O1228       O  0.37680659  0.16565793  0.12961006    -0.74800
O1229       O  0.38865160  0.12308367  0.16870477    -0.74700
O1230       O  0.46327200  0.08792302  0.10890167    -0.74700
O1231       O  0.45353820  0.14030651  0.16818779    -0.74700
O1232       O  0.39802358  0.07411163  0.11406775    -0.74700
Ni1233     Ni  0.41434945  0.15075621  0.09979285     1.25400
Ni1234     Ni  0.42703537  0.10492176  0.14134711     1.25400
C1235       C  0.38362151  0.08427738  0.08525522     0.87500
C1236       C  0.45102017  0.17394062  0.16087353     0.87500
C1237       C  0.46355396  0.09909965  0.07684978     0.87500
C1238       C  0.37121219  0.15106723  0.15920063     0.87700
O1239       O  0.10195070  0.18061106  0.88324190    -0.74600
O1240       O  0.16691139  0.12148150  0.83007018    -0.74700
O1241       O  0.11781445  0.17550096  0.81554836    -0.74700
O1242       O  0.15053920  0.12865191  0.89743663    -0.74800
O1243       O  0.11381441  0.08434562  0.88752993    -0.74700
O1244       O  0.07540467  0.13683195  0.80855888    -0.74700
O1245       O  0.12747885  0.08009027  0.81906739    -0.81100
O1246       O  0.06394391  0.13694966  0.87704688    -0.74700
Ni1247     Ni  0.13568910  0.15294838  0.85659343     1.25400
Ni1248     Ni  0.09372013  0.10788005  0.84727137     1.25400
C1249       C  0.07170240  0.16890537  0.88757647     0.87500
C1250       C  0.15911975  0.08926811  0.82003611     0.87500
C1251       C  0.08810165  0.16780371  0.80301194     0.87500
C1252       C  0.13967014  0.09760263  0.90440177     0.87700
O1253       O  0.07616227  0.86561698  0.16096751    -0.74600
O1254       O  0.13502888  0.81409171  0.09521537    -0.74700
O1255       O  0.08225693  0.79737090  0.14250088    -0.74700
O1256       O  0.12717333  0.88230871  0.11726657    -0.74800
O1257       O  0.16622479  0.87358225  0.16042748    -0.74700
O1258       O  0.12027582  0.78866829  0.18616660    -0.74700
O1259       O  0.17479746  0.80567236  0.13737257    -0.74700
O1260       O  0.11420023  0.85709802  0.20494336    -0.74700
Ni1261     Ni  0.10397508  0.83974146  0.12729888     1.25400
Ni1262     Ni  0.14552803  0.83041277  0.17365635     1.25400
C1263       C  0.08429303  0.86783741  0.19388607     0.87500
C1264       C  0.16621463  0.80592628  0.10410523     0.87500
C1265       C  0.08967460  0.78551553  0.17338897     0.87500
C1266       C  0.15459312  0.89119144  0.13409556     0.87700
O1267       O  0.87812379  0.12740197  0.08270426    -0.74600
O1268       O  0.81050195  0.07143477  0.12625347    -0.74700
O1269       O  0.81107486  0.13020859  0.07503978    -0.74700
O1270       O  0.87758423  0.07397787  0.13019327    -0.74800
O1271       O  0.87592811  0.11760568  0.17260954    -0.74700
O1272       O  0.80349778  0.16753467  0.12190613    -0.74700
O1273       O  0.80975527  0.10952115  0.17317506    -0.74700
O1274       O  0.87082961  0.17074886  0.12487944    -0.74700
Ni1275     Ni  0.84387877  0.09921255  0.10186605     1.25400
Ni1276     Ni  0.83926267  0.14286108  0.14970262     1.25400
C1277       C  0.88313817  0.15940306  0.09495302     0.87500
C1278       C  0.80582702  0.07733398  0.15987829     0.87500
C1279       C  0.80078176  0.16150686  0.08797575     0.87500
C1280       C  0.88647044  0.08630364  0.16112277     0.87700
C1281       C  0.32602406  0.04464724  0.01395613    -0.21500
C1282       C  0.31494256  0.01403211  0.03093628    -0.09600
C1283       C  0.33279180  0.00251552  0.06146959     0.29300
C1284       C  0.35708094  0.02453161  0.07770458    -0.21500
C1285       C  0.36377666  0.05819213  0.06387516    -0.09600
C1286       C  0.34999605  0.06691391  0.03047993     0.29300
F1287       F  0.35768844  0.09805646  0.01490383    -0.20100
H1288       H  0.31369904  0.05351727  0.98970576     0.17700
H1289       H  0.36868846  0.01631577  0.10252129     0.17700
F1290       F  0.32441577  0.97200251  0.07778871    -0.20100
C1291       C  0.17741476  0.96665875  0.07797897    -0.21500
C1292       C  0.21243890  0.95800091  0.07222602    -0.09600
C1293       C  0.22948413  0.93208856  0.09302802     0.29300
C1294       C  0.21075245  0.91280456  0.11676033    -0.21500
C1295       C  0.17507916  0.91919404  0.11975929    -0.09600
C1296       C  0.15879005  0.94738132  0.10160868     0.29300
F1297       F  0.12446547  0.95468074  0.10506322    -0.20100
H1298       H  0.16405436  0.98750214  0.06321918     0.17700
H1299       H  0.22355389  0.89075528  0.13035056     0.17700
F1300       F  0.26344082  0.92340371  0.08855194    -0.20100
C1301       C  0.19223859  0.08859344  0.94117153    -0.21500
C1302       C  0.16012290  0.07589192  0.92947816    -0.09600
C1303       C  0.15078197  0.04099897  0.93812976     0.29300
C1304       C  0.17325234  0.01948614  0.95811478    -0.21500
C1305       C  0.20542983  0.03220115  0.96932013    -0.09600
C1306       C  0.21479979  0.06699925  0.96061100     0.29300
F1307       F  0.24521445  0.08078321  0.97178018    -0.20100
H1308       H  0.20046586  0.11516543  0.93463859     0.17700
H1309       H  0.16549062  0.99280580  0.96488020     0.17700
F1310       F  0.12023485  0.02750159  0.92713970    -0.20100
C1311       C  0.20166184  0.15388232  0.36003133    -0.21500
C1312       C  0.16771089  0.16612151  0.36729126    -0.09600
C1313       C  0.15462184  0.19757375  0.35176213     0.29300
C1314       C  0.17524257  0.21647938  0.32961756    -0.21500
C1315       C  0.20906511  0.20403893  0.32180738    -0.09600
C1316       C  0.22221095  0.17253312  0.33740838     0.29300
F1317       F  0.25472539  0.15958633  0.33088620    -0.20100
H1318       H  0.21251608  0.12989584  0.37204876     0.17700
H1319       H  0.16409510  0.24041656  0.31778119     0.17700
F1320       F  0.12164763  0.20963422  0.35708190    -0.20100
C1321       C  0.33039028  0.14908536  0.20989519    -0.21500
C1322       C  0.34611964  0.16863538  0.18365426    -0.09600
C1323       C  0.33956783  0.20607765  0.18239463     0.29300
C1324       C  0.31686135  0.22332005  0.20611641    -0.21500
C1325       C  0.29982962  0.20377253  0.23145542    -0.09600
C1326       C  0.30716158  0.16641098  0.23357334     0.29300
F1327       F  0.29107217  0.14635199  0.25739961    -0.20100
H1328       H  0.33559108  0.12030099  0.21163090     0.17700
H1329       H  0.31218190  0.25216269  0.20411416     0.17700
F1330       F  0.35563691  0.22637500  0.15871098    -0.20100
C1331       C  0.00009344  0.05551326  0.34325143    -0.21500
C1332       C  0.00310500  0.01761715  0.34454537    -0.09600
C1333       C  0.03048087  0.00191026  0.36395850     0.29300
C1334       C  0.05562897  0.02348485  0.37908920    -0.21500
C1335       C  0.05316886  0.06111915  0.37659323    -0.09600
C1336       C  0.02493016  0.07713943  0.35901042     0.29300
F1337       F  0.02203366  0.11348409  0.35574910    -0.20100
H1338       H  0.97940162  0.06859836  0.32864729     0.17700
H1339       H  0.07669969  0.01066083  0.39353506     0.17700
F1340       F  0.03346454  0.96569230  0.36777021    -0.20100
C1341       C  0.91743657  0.07851918  0.21817114    -0.21500
C1342       C  0.90554025  0.06306955  0.18598984    -0.09600
C1343       C  0.90659029  0.02519600  0.18118196     0.29300
C1344       C  0.92002477  0.00346117  0.20788918    -0.21500
C1345       C  0.93174039  0.01902506  0.24022573    -0.09600
C1346       C  0.92976612  0.05699272  0.24519854     0.29300
F1347       F  0.94002119  0.07386403  0.27592229    -0.20100
H1348       H  0.91632523  0.10754220  0.22296524     0.17700
H1349       H  0.92102558  0.97441246  0.20331362     0.17700
F1350       F  0.89323582  0.00904938  0.15147044    -0.20100
C1351       C  0.99829105  0.90010941  0.23024777    -0.21500
C1352       C  0.00812343  0.91631785  0.26281282    -0.09600
C1353       C  0.04219767  0.91022173  0.27551031     0.29300
C1354       C  0.06678061  0.89293793  0.25353656    -0.21500
C1355       C  0.05774523  0.88131639  0.21900783    -0.09600
C1356       C  0.02274484  0.88265497  0.20848940     0.29300
F1357       F  0.01218746  0.86858923  0.17651838    -0.20100
H1358       H  0.97218469  0.90353340  0.22022598     0.17700
H1359       H  0.09325338  0.89061832  0.26280168     0.17700
F1360       F  0.05288599  0.92384057  0.30757285    -0.20100
C1361       C  0.21471153  0.29734532  0.19709145    -0.21500
C1362       C  0.20824350  0.29479653  0.23349151    -0.09600
C1363       C  0.17884746  0.31256344  0.24821558     0.29300
C1364       C  0.15568547  0.33105133  0.22636685    -0.21500
C1365       C  0.16148383  0.33214853  0.18967339    -0.09600
C1366       C  0.19150501  0.31544730  0.17528349     0.29300
F1367       F  0.19834448  0.31593333  0.14001669    -0.20100
H1368       H  0.23695723  0.28377538  0.18487952     0.17700
H1369       H  0.13336874  0.34478751  0.23828352     0.17700
F1370       F  0.17212922  0.31162333  0.28348668    -0.20100
C1371       C  0.02428536  0.33822883  0.01056468    -0.21500
C1372       C  0.99199600  0.32829613  0.02263687    -0.09600
C1373       C  0.98546097  0.33063512  0.05948791     0.29300
C1374       C  0.01131993  0.33990874  0.08342886    -0.21500
C1375       C  0.04421938  0.34725108  0.07149652    -0.09600
C1376       C  0.05030285  0.34735180  0.03465100     0.29300
F1377       F  0.08119670  0.35641453  0.02166552    -0.20100
H1378       H  0.03011618  0.33710247  0.98246356     0.17700
H1379       H  0.00549283  0.34103632  0.11153497     0.17700
F1380       F  0.95491346  0.32167806  0.07304054    -0.20100
C1381       C  0.98731578  0.20335545  0.92592377    -0.21500
C1382       C  0.99162498  0.24091711  0.92743546    -0.09600
C1383       C  0.02178608  0.25462735  0.91347519     0.29300
C1384       C  0.04801294  0.23099352  0.90101193    -0.21500
C1385       C  0.04453617  0.19344166  0.90213665    -0.09600
C1386       C  0.01359742  0.17985713  0.91400006     0.29300
F1387       F  0.00929016  0.14383424  0.91594125    -0.20100
H1388       H  0.96457548  0.19167128  0.93636546     0.17700
H1389       H  0.07114733  0.24213090  0.89067939     0.17700
F1390       F  0.02663683  0.29073121  0.91335705    -0.20100
C1391       C  0.90157118  0.17464911  0.03527876    -0.21500
C1392       C  0.89820413  0.18486056  0.07133695    -0.09600
C1393       C  0.90230086  0.22102206  0.08224413     0.29300
C1394       C  0.90846488  0.24657182  0.05723169    -0.21500
C1395       C  0.91238579  0.23639241  0.02103975    -0.09600
C1396       C  0.90844280  0.19993364  0.01037862     0.29300
F1397       F  0.91247783  0.18800343  0.97621763    -0.20100
H1398       H  0.89807911  0.14701697  0.02595898     0.17700
H1399       H  0.91180269  0.27409818  0.06671780     0.17700
F1400       F  0.90079775  0.23169025  0.11703675    -0.20100
C1401       C  0.97412378  0.30396079  0.61238792    -0.21500
C1402       C  0.93968619  0.29925137  0.60212178    -0.09600
C1403       C  0.93000174  0.26657820  0.58564748     0.29300
C1404       C  0.95527252  0.24035432  0.57651294    -0.21500
C1405       C  0.99035172  0.24660877  0.58379114    -0.09600
C1406       C  0.99922119  0.27766126  0.60366842     0.29300
F1407       F  0.03250287  0.28356822  0.61251442    -0.20100
H1408       H  0.98170337  0.32837478  0.62675810     0.17700
H1409       H  0.94754217  0.21660686  0.56116805     0.17700
F1410       F  0.89669563  0.26114714  0.57610191    -0.20100
C1411       C  0.97452394  0.14623279  0.50153990    -0.21500
C1412       C  0.00429472  0.16218743  0.48965370    -0.09600
C1413       C  0.00861990  0.16599588  0.45277303     0.29300
C1414       C  0.98252366  0.15636624  0.42902870    -0.21500
C1415       C  0.95173724  0.14320809  0.44147518    -0.09600
C1416       C  0.94818517  0.13749407  0.47797283     0.29300
F1417       F  0.91951250  0.12297114  0.49107621    -0.20100
H1418       H  0.97052515  0.14276533  0.52956634     0.17700
H1419       H  0.98618655  0.15973249  0.40088225     0.17700
F1420       F  0.03688030  0.18108068  0.43953464    -0.20100
C1421       C  0.08960509  0.24814666  0.46511485    -0.21500
C1422       C  0.07886135  0.25932110  0.49940232    -0.09600
C1423       C  0.07856729  0.29645835  0.50901541     0.29300
C1424       C  0.08575109  0.32162647  0.48368698    -0.21500
C1425       C  0.09394190  0.31028577  0.44862737    -0.09600
C1426       C  0.09687956  0.27311407  0.44002426     0.29300
F1427       F  0.10704888  0.26054885  0.40739683    -0.20100
H1428       H  0.09057072  0.21994731  0.45672554     0.17700
H1429       H  0.08514078  0.35002338  0.49169217     0.17700
F1430       F  0.07010257  0.30872532  0.54231891    -0.20100
C1431       C  0.94839452  0.58649542  0.24290156    -0.21500
C1432       C  0.96140779  0.55281347  0.25313642    -0.09600
C1433       C  0.94307160  0.53279614  0.27710921     0.29300
C1434       C  0.91347248  0.54758066  0.29278976    -0.21500
C1435       C  0.90146648  0.58224957  0.28440815    -0.09600
C1436       C  0.91826643  0.60122746  0.25838485     0.29300
F1437       F  0.90729330  0.63511771  0.25040367    -0.20100
H1438       H  0.96218347  0.60160192  0.22394289     0.17700
H1439       H  0.90101261  0.53286111  0.31311893     0.17700
F1440       F  0.95393302  0.49887325  0.28540747    -0.20100
C1441       C  0.95854977  0.40472770  0.15682126    -0.21500
C1442       C  0.92873724  0.42017954  0.14156384    -0.09600
C1443       C  0.92686600  0.45748091  0.13629938     0.29300
C1444       C  0.95312782  0.47912842  0.14890960    -0.21500
C1445       C  0.98153279  0.46430073  0.16732606    -0.09600
C1446       C  0.98487426  0.42644948  0.16947005     0.29300
F1447       F  0.01220344  0.41033034  0.18586788    -0.20100
H1448       H  0.96126672  0.37576063  0.15949349     0.17700
H1449       H  0.94997312  0.50794656  0.14658949     0.17700
F1450       F  0.89993860  0.47310032  0.11865489    -0.20100
C1451       C  0.05534708  0.48284673  0.30695034    -0.21500
C1452       C  0.05363103  0.46937810  0.27152887    -0.09600
C1453       C  0.06632648  0.43399623  0.26349954     0.29300
C1454       C  0.08001755  0.41286855  0.29021552    -0.21500
C1455       C  0.08144806  0.42625368  0.32557700    -0.09600
C1456       C  0.06876995  0.46148307  0.33378602     0.29300
F1457       F  0.06942897  0.47549890  0.36761032    -0.20100
H1458       H  0.04546813  0.50974210  0.31426394     0.17700
H1459       H  0.09006605  0.38602538  0.28288103     0.17700
F1460       F  0.06500761  0.41912909  0.23011523    -0.20100
C1461       C  0.80557505  0.45349088  0.51915943    -0.21500
C1462       C  0.77019526  0.45061260  0.52566480    -0.09600
C1463       C  0.75918639  0.42229868  0.54616658     0.29300
C1464       C  0.78342062  0.39972662  0.56257830    -0.21500
C1465       C  0.81881531  0.40525589  0.55900022    -0.09600
C1466       C  0.82970431  0.43096738  0.53550085     0.29300
F1467       F  0.86370329  0.43602234  0.53011713    -0.20100
H1468       H  0.81486951  0.47392061  0.50216677     0.17700
H1469       H  0.77436494  0.37993150  0.58043847     0.17700
F1470       F  0.72526139  0.41762548  0.55217730    -0.20100
C1471       C  0.74286029  0.58029969  0.43818456    -0.21500
C1472       C  0.75213239  0.54434984  0.44419108    -0.09600
C1473       C  0.77558250  0.52525049  0.42171848     0.29300
C1474       C  0.79217502  0.54310173  0.39557385    -0.21500
C1475       C  0.78499307  0.57978951  0.39136909    -0.09600
C1476       C  0.75930777  0.59813910  0.41165660     0.29300
F1477       F  0.75301937  0.63408713  0.40852065    -0.20100
H1478       H  0.72453945  0.59487128  0.45525780     0.17700
H1479       H  0.81231029  0.52901447  0.38029995     0.17700
F1480       F  0.78320950  0.48960307  0.42585592    -0.20100
C1481       C  0.63544950  0.41369915  0.45617827    -0.21500
C1482       C  0.62760481  0.42372409  0.42131406    -0.09600
C1483       C  0.63232676  0.45955018  0.41192331     0.29300
C1484       C  0.64810280  0.48345414  0.43582131    -0.21500
C1485       C  0.66011880  0.47174401  0.46903132    -0.09600
C1486       C  0.65084791  0.43769093  0.48015396     0.29300
F1487       F  0.65960992  0.42622387  0.51297276    -0.20100
H1488       H  0.63073147  0.38677385  0.46472343     0.17700
H1489       H  0.65392175  0.50993406  0.42672991     0.17700
F1490       F  0.62329292  0.47115453  0.37923808    -0.20100
C1491       C  0.81273668  0.15896745  0.26218073    -0.21500
C1492       C  0.78033808  0.17132535  0.27465653    -0.09600
C1493       C  0.77334487  0.17025660  0.31121368     0.29300
C1494       C  0.79884971  0.15857780  0.33469169    -0.21500
C1495       C  0.83154833  0.14728782  0.32229567    -0.09600
C1496       C  0.83816721  0.14718012  0.28563142     0.29300
F1497       F  0.86882280  0.13492613  0.27211225    -0.20100
H1498       H  0.81881336  0.15918390  0.23418502     0.17700
H1499       H  0.79271944  0.15791308  0.36265596     0.17700
F1500       F  0.74237924  0.18142148  0.32471542    -0.20100
C1501       C  0.66989354  0.28464377  0.25050499    -0.21500
C1502       C  0.68001269  0.25030515  0.26219555    -0.09600
C1503       C  0.66720087  0.23887054  0.29464094     0.29300
C1504       C  0.64726238  0.26249477  0.31610262    -0.21500
C1505       C  0.63924729  0.29772235  0.30555035    -0.09600
C1506       C  0.64988654  0.30824853  0.27194889     0.29300
F1507       F  0.64186607  0.34162514  0.26000803    -0.20100
H1508       H  0.67894671  0.29416782  0.22553155     0.17700
H1509       H  0.63823209  0.25310995  0.34115070     0.17700
F1510       F  0.67479865  0.20533508  0.30639392    -0.20100
C1511       C  0.82942846  0.26776375  0.15653505    -0.21500
C1512       C  0.81535526  0.30074628  0.14559859    -0.09600
C1513       C  0.77977115  0.30830667  0.14962663     0.29300
C1514       C  0.75920659  0.28378342  0.16574661    -0.21500
C1515       C  0.77362598  0.25141045  0.17829920    -0.09600
C1516       C  0.80890583  0.24306629  0.17236926     0.29300
F1517       F  0.82422349  0.21183508  0.18315472    -0.20100
H1518       H  0.85656567  0.26132996  0.15346008     0.17700
H1519       H  0.73218968  0.29091196  0.16957445     0.17700
F1520       F  0.76460390  0.33922157  0.13781262    -0.20100
C1521       C  0.91518403  0.51461944  0.68538447    -0.21500
C1522       C  0.92514514  0.52918635  0.71878290    -0.09600
C1523       C  0.91111944  0.56305584  0.73043703     0.29300
C1524       C  0.88965807  0.58280690  0.70780224    -0.21500
C1525       C  0.88182142  0.56912356  0.67341643    -0.09600
C1526       C  0.89408092  0.53433075  0.66279486     0.29300
F1527       F  0.88630120  0.51929996  0.63035956    -0.20100
H1528       H  0.92487119  0.48829862  0.67587563     0.17700
H1529       H  0.87970245  0.60911970  0.71702504     0.17700
F1530       F  0.91908048  0.57787055  0.76288392    -0.20100
C1531       C  0.02587148  0.45383253  0.67471624    -0.21500
C1532       C  0.02780458  0.45168655  0.71184439    -0.09600
C1533       C  0.05739802  0.43588583  0.72756144     0.29300
C1534       C  0.08463871  0.42322586  0.70665048    -0.21500
C1535       C  0.08258571  0.42472079  0.66957220    -0.09600
C1536       C  0.05297638  0.44038647  0.65363593     0.29300
F1537       F  0.04978504  0.44192600  0.61775457    -0.20100
H1538       H  0.00368672  0.46648730  0.66195109     0.17700
H1539       H  0.10654840  0.41023527  0.71958419     0.17700
F1540       F  0.06008431  0.43234559  0.76322906    -0.20100
C1541       C  0.04176118  0.50996006  0.82862046    -0.21500
C1542       C  0.01262842  0.52794109  0.81428095    -0.09600
C1543       C  0.00753765  0.56514846  0.82161287     0.29300
C1544       C  0.03298569  0.58430705  0.83981961    -0.21500
C1545       C  0.06365032  0.56667122  0.85116456    -0.09600
C1546       C  0.06711612  0.52901503  0.84661573     0.29300
F1547       F  0.09508116  0.51047191  0.85913259    -0.20100
H1548       H  0.04621029  0.48122219  0.82367789     0.17700
H1549       H  0.02889616  0.61315510  0.84440637     0.17700
F1550       F  0.97936685  0.58351973  0.80920783    -0.20100
C1551       C  0.32116103  0.58431402  0.53414469    -0.21500
C1552       C  0.32069360  0.54680199  0.53823412    -0.09600
C1553       C  0.33946853  0.53153673  0.56652145     0.29300
C1554       C  0.35840746  0.55335187  0.58980554    -0.21500
C1555       C  0.35916165  0.59074798  0.58551141    -0.09600
C1556       C  0.34005434  0.60617968  0.55757587     0.29300
F1557       F  0.33967375  0.64230488  0.55265989    -0.20100
H1558       H  0.30654541  0.59694961  0.51303231     0.17700
H1559       H  0.37327048  0.54065157  0.61071543     0.17700
F1560       F  0.33999728  0.49547241  0.57167283    -0.20100
C1561       C  0.19785481  0.40676699  0.52629950    -0.21500
C1562       C  0.20264832  0.40408914  0.56304187    -0.09600
C1563       C  0.23258624  0.41803210  0.57927104     0.29300
C1564       C  0.25570022  0.43652924  0.55947530    -0.21500
C1565       C  0.24918097  0.44224297  0.52340141    -0.09600
C1566       C  0.22107408  0.42534801  0.50645898     0.29300
F1567       F  0.21472340  0.42867659  0.47119026    -0.20100
H1568       H  0.17565000  0.39527838  0.51303114     0.17700
H1569       H  0.27727494  0.44876120  0.57324218     0.17700
F1570       F  0.23879333  0.41576144  0.61470143    -0.20100
C1571       C  0.34823718  0.75248432  0.73870132    -0.21500
C1572       C  0.33538422  0.73370162  0.76724716    -0.09600
C1573       C  0.34228473  0.69622302  0.76856139     0.29300
C1574       C  0.36019180  0.67806197  0.74113338    -0.21500
C1575       C  0.37124182  0.69656661  0.71172342    -0.09600
C1576       C  0.36534358  0.73409184  0.71086069     0.29300
F1577       F  0.37550818  0.75303957  0.68289797    -0.20100
H1578       H  0.34351352  0.78131480  0.73682656     0.17700
H1579       H  0.36441269  0.64916517  0.74239433     0.17700
F1580       F  0.33010547  0.67655303  0.79508370    -0.20100
C1581       C  0.24403532  0.68484911  0.84173355    -0.21500
C1582       C  0.23939214  0.72243560  0.84661279    -0.09600
C1583       C  0.20777192  0.73653956  0.86012201     0.29300
C1584       C  0.18175042  0.71370561  0.86847184    -0.21500
C1585       C  0.18622482  0.67629991  0.86321914    -0.09600
C1586       C  0.21760849  0.66195544  0.84947617     0.29300
F1587       F  0.22286520  0.62585690  0.84340208    -0.20100
H1588       H  0.26756297  0.67308697  0.83049491     0.17700
H1589       H  0.15818271  0.72549298  0.87962161     0.17700
F1590       F  0.20111629  0.77253299  0.86398425    -0.20100
C1591       C  0.22856067  0.84736180  0.71971061    -0.21500
C1592       C  0.19377205  0.85006611  0.72978692    -0.09600
C1593       C  0.18495888  0.84187771  0.76450652     0.29300
C1594       C  0.21002570  0.82893193  0.78766849    -0.21500
C1595       C  0.24450944  0.82376608  0.77696030    -0.09600
C1596       C  0.25384401  0.83487608  0.74317826     0.29300
F1597       F  0.28692722  0.83187083  0.73193524    -0.20100
H1598       H  0.23636556  0.85503864  0.69359491     0.17700
H1599       H  0.20164695  0.82057250  0.81329097     0.17700
F1600       F  0.15198640  0.84514309  0.77594074    -0.20100
C1601       C  0.21903884  0.58877842  0.40705294    -0.21500
C1602       C  0.18684930  0.57365707  0.39968470    -0.09600
C1603       C  0.18040188  0.53903742  0.41139593     0.29300
C1604       C  0.20501865  0.52089979  0.43159239    -0.21500
C1605       C  0.23654758  0.53674969  0.44059876    -0.09600
C1606       C  0.24376735  0.57051851  0.42728333     0.29300
F1607       F  0.27442823  0.58609209  0.43400568    -0.20100
H1608       H  0.22516631  0.61488307  0.39724290     0.17700
H1609       H  0.19866882  0.49474465  0.44107729     0.17700
F1610       F  0.15043725  0.52248846  0.40344915    -0.20100
C1611       C  0.01777598  0.70209179  0.42916123    -0.21500
C1612       C  0.03344174  0.72910039  0.45015992    -0.09600
C1613       C  0.06804401  0.73716921  0.44361376     0.29300
C1614       C  0.08710613  0.71636465  0.41862899    -0.21500
C1615       C  0.07202997  0.68733748  0.40012622    -0.09600
C1616       C  0.03680843  0.68123655  0.40461652     0.29300
F1617       F  0.02071959  0.65460379  0.38578138    -0.20100
H1618       H  0.99108339  0.69566268  0.43288293     0.17700
H1619       H  0.11398854  0.72199221  0.41485995     0.17700
F1620       F  0.08399623  0.76401813  0.46221979    -0.20100
C1621       C  0.89460470  0.71499179  0.57648455    -0.21500
C1622       C  0.88959308  0.67943668  0.56368096    -0.09600
C1623       C  0.90807600  0.66592509  0.53385387     0.29300
C1624       C  0.93228303  0.68723411  0.51840100    -0.21500
C1625       C  0.93858456  0.72201896  0.53263146    -0.09600
C1626       C  0.91883604  0.73610847  0.56121109     0.29300
F1627       F  0.92362450  0.76990824  0.57514784    -0.20100
H1628       H  0.88015517  0.72646191  0.59885295     0.17700
H1629       H  0.94739392  0.67570107  0.49651648     0.17700
F1630       F  0.90380214  0.63185054  0.52036248    -0.20100
C1631       C  0.07414486  0.79076277  0.56296939    -0.21500
C1632       C  0.03815451  0.79179809  0.56596726    -0.09600
C1633       C  0.02277547  0.80887290  0.59612375     0.29300
C1634       C  0.04315762  0.82688532  0.62133923    -0.21500
C1635       C  0.07898462  0.82765585  0.61698912    -0.09600
C1636       C  0.09445400  0.80814327  0.58837741     0.29300
F1637       F  0.12917310  0.80678685  0.58426232    -0.20100
H1638       H  0.08676292  0.77661347  0.54076177     0.17700
H1639       H  0.03069415  0.84184039  0.64317415     0.17700
F1640       F  0.98810792  0.80955853  0.60056621    -0.20100
C1641       C  0.67432101  0.33288255  0.71912615    -0.21500
C1642       C  0.70978691  0.32839891  0.71247881    -0.09600
C1643       C  0.72304244  0.34098590  0.68075362     0.29300
C1644       C  0.70086484  0.35688369  0.65604347    -0.21500
C1645       C  0.66535436  0.36051209  0.66262411    -0.09600
C1646       C  0.65228222  0.34833958  0.69445292     0.29300
F1647       F  0.61816553  0.35143915  0.70200065    -0.20100
H1648       H  0.66312209  0.32367503  0.74322072     0.17700
H1649       H  0.71166010  0.36723173  0.63219870     0.17700
F1650       F  0.75720108  0.33806553  0.67347622    -0.20100
C1651       C  0.72571264  0.21243228  0.81990480    -0.21500
C1652       C  0.71092107  0.24434984  0.80671616    -0.09600
C1653       C  0.67546044  0.25205715  0.81172985     0.29300
C1654       C  0.65525780  0.22747746  0.82816976    -0.21500
C1655       C  0.66993761  0.19521035  0.84052203    -0.09600
C1656       C  0.70555323  0.18802210  0.83656783     0.29300
F1657       F  0.72132723  0.15802282  0.84969355    -0.20100
H1658       H  0.75289998  0.20581130  0.81676962     0.17700
H1659       H  0.62809255  0.23401426  0.83169548     0.17700
F1660       F  0.65997061  0.28302460  0.80050724    -0.20100
C1661       C  0.82496545  0.26234923  0.70097733    -0.21500
C1662       C  0.81165429  0.25145357  0.73326131    -0.09600
C1663       C  0.82472566  0.21924999  0.74790614     0.29300
C1664       C  0.84747236  0.19669522  0.72856615    -0.21500
C1665       C  0.85791651  0.20587692  0.69462317    -0.09600
C1666       C  0.84782021  0.23977362  0.68169259     0.29300
F1667       F  0.85875144  0.25060726  0.64980912    -0.20100
H1668       H  0.81613633  0.28739214  0.68944694     0.17700
H1669       H  0.85609963  0.17146781  0.73988812     0.17700
F1670       F  0.81417267  0.20823829  0.77988495    -0.20100
C1671       C  0.41365705  0.15579380  0.54496702    -0.21500
C1672       C  0.41433004  0.16528654  0.58141812    -0.09600
C1673       C  0.42912019  0.19783511  0.59310388     0.29300
C1674       C  0.44134215  0.22113500  0.56854691    -0.21500
C1675       C  0.43949473  0.21231150  0.53201865    -0.09600
C1676       C  0.42603677  0.17911733  0.52038560     0.29300
F1677       F  0.42401296  0.16956575  0.48528227    -0.20100
H1678       H  0.40190668  0.13117661  0.53522613     0.17700
H1679       H  0.45264569  0.24596498  0.57832954     0.17700
F1680       F  0.43080029  0.20785176  0.62814905    -0.20100
C1681       C  0.50848772  0.18176287  0.42614718    -0.21500
C1682       C  0.51403136  0.21880148  0.43198739    -0.09600
C1683       C  0.54360300  0.23357197  0.41772537     0.29300
C1684       C  0.56802228  0.21106993  0.40021673    -0.21500
C1685       C  0.56358816  0.17359008  0.39701107    -0.09600
C1686       C  0.53306547  0.15930907  0.40940362     0.29300
F1687       F  0.52710438  0.12344928  0.40627842    -0.20100
H1688       H  0.48581287  0.16948623  0.43621121     0.17700
H1689       H  0.59064482  0.22299388  0.38961689     0.17700
F1690       F  0.54983309  0.26929955  0.42194320    -0.20100
C1691       C  0.52790547  0.33716050  0.49825758    -0.21500
C1692       C  0.50088884  0.32114063  0.51558819    -0.09600
C1693       C  0.49426870  0.33125012  0.55147211     0.29300
C1694       C  0.51671717  0.35360368  0.57027820    -0.21500
C1695       C  0.54596311  0.36611053  0.55379688    -0.09600
C1696       C  0.55043224  0.35919254  0.51714110     0.29300
F1697       F  0.57699488  0.37292347  0.49954119    -0.20100
H1698       H  0.53315889  0.33071435  0.47052519     0.17700
H1699       H  0.51199030  0.35975602  0.59818402     0.17700
F1700       F  0.46770025  0.31771099  0.56930747    -0.20100
C1701       C  0.74215217  0.05896049  0.43550365    -0.21500
C1702       C  0.73471044  0.02384018  0.44504447    -0.09600
C1703       C  0.70379836  0.00859655  0.43277841     0.29300
C1704       C  0.68049294  0.02851730  0.41263786    -0.21500
C1705       C  0.68709730  0.06418782  0.40463807    -0.09600
C1706       C  0.71840148  0.07925289  0.41596050     0.29300
F1707       F  0.72589117  0.11379469  0.40901373    -0.20100
H1708       H  0.76545772  0.07165123  0.44487657     0.17700
H1709       H  0.65696210  0.01597052  0.40371310     0.17700
F1710       F  0.69495224  0.97511791  0.44176250    -0.20100
C1711       C  0.67886974  0.91818215  0.55426050    -0.21500
C1712       C  0.68324174  0.92050872  0.59124677    -0.09600
C1713       C  0.71205452  0.93784914  0.60598398     0.29300
C1714       C  0.73576961  0.95290607  0.58375924    -0.21500
C1715       C  0.73127920  0.95050639  0.54664051    -0.09600
C1716       C  0.70273624  0.93250286  0.53215560     0.29300
F1717       F  0.69778906  0.92837920  0.49654733    -0.20100
H1718       H  0.65767548  0.90373627  0.54213524     0.17700
H1719       H  0.75724057  0.96701931  0.59569327     0.17700
F1720       F  0.71741635  0.94011281  0.64169456    -0.20100
C1721       C  0.82613383  0.07085463  0.52751462    -0.21500
C1722       C  0.82316160  0.03459661  0.53652403    -0.09600
C1723       C  0.84047333  0.02203840  0.56682855     0.29300
C1724       C  0.85832357  0.04587845  0.58893329    -0.21500
C1725       C  0.85964204  0.08256272  0.58115047    -0.09600
C1726       C  0.84420872  0.09476699  0.54966304     0.29300
F1727       F  0.84544900  0.12990521  0.54090881    -0.20100
H1728       H  0.81295931  0.08127063  0.50434832     0.17700
H1729       H  0.87122681  0.03543468  0.61225155     0.17700
F1730       F  0.83942053  0.98691440  0.57570702    -0.20100
C1731       C  0.40847047  0.07278303  0.73920590    -0.21500
C1732       C  0.40053439  0.05888755  0.70511934    -0.09600
C1733       C  0.40561329  0.02159881  0.69742319     0.29300
C1734       C  0.42004701  0.99929314  0.72299023    -0.21500
C1735       C  0.42946415  0.01351829  0.75668582    -0.09600
C1736       C  0.42268949  0.05056656  0.76472593     0.29300
F1737       F  0.43138400  0.06623387  0.79650640    -0.20100
H1738       H  0.40399158  0.10115923  0.74624280     0.17700
H1739       H  0.42521482  0.97109140  0.71580369     0.17700
F1740       F  0.39701584  0.00655327  0.66523902    -0.20100
C1741       C  0.50302521  0.05673740  0.84959417    -0.21500
C1742       C  0.51362802  0.02002592  0.84824017    -0.09600
C1743       C  0.54734035  0.01054366  0.85920708     0.29300
C1744       C  0.57054466  0.03723894  0.86783738    -0.21500
C1745       C  0.56074878  0.07390937  0.86563831    -0.09600
C1746       C  0.52643101  0.08347699  0.85738016     0.29300
F1747       F  0.51565947  0.11856315  0.85542294    -0.20100
H1748       H  0.47732054  0.06525652  0.84173860     0.17700
H1749       H  0.59643449  0.02899599  0.87582345     0.17700
F1750       F  0.55886029  0.97568592  0.85915404    -0.20100
C1751       C  0.58064695  0.90755618  0.74392693    -0.21500
C1752       C  0.57013997  0.89961500  0.70886045    -0.09600
C1753       C  0.53473109  0.90176087  0.70014294     0.29300
C1754       C  0.51088453  0.91374445  0.72547648    -0.21500
C1755       C  0.52163430  0.92486509  0.75974159    -0.09600
C1756       C  0.55674763  0.92011944  0.76922708     0.29300
F1757       F  0.56857695  0.92943409  0.80220510    -0.20100
H1758       H  0.60753485  0.90486944  0.75163067     0.17700
H1759       H  0.48409494  0.91642702  0.71739039     0.17700
F1760       F  0.52284609  0.89277760  0.66702606    -0.20100
C1761       C  0.39496808  0.50450121  0.21825800    -0.21500
C1762       C  0.41739962  0.52074897  0.24301311    -0.09600
C1763       C  0.42039909  0.55864881  0.24372561     0.29300
C1764       C  0.40359389  0.57897522  0.21806696    -0.21500
C1765       C  0.38310586  0.56212507  0.19199592    -0.09600
C1766       C  0.37760097  0.52500626  0.19319499     0.29300
F1767       F  0.35488066  0.50873044  0.17070709    -0.20100
H1768       H  0.39196293  0.47563519  0.21745992     0.17700
H1769       H  0.40717672  0.60783862  0.21807946     0.17700
F1770       F  0.44106866  0.57603998  0.26759811    -0.20100
C1771       C  0.52531656  0.39994610  0.24457615    -0.21500
C1772       C  0.49543189  0.41864792  0.23347729    -0.09600
C1773       C  0.48593127  0.41682702  0.19715369     0.29300
C1774       C  0.50839827  0.40064763  0.17222378    -0.21500
C1775       C  0.54012564  0.38555324  0.18313196    -0.09600
C1776       C  0.54743669  0.38335876  0.21979236     0.29300
F1777       F  0.57640162  0.36612105  0.23189071    -0.20100
H1778       H  0.53293901  0.40054447  0.27234252     0.17700
H1779       H  0.50162111  0.40135023  0.14429564     0.17700
F1780       F  0.45663200  0.43347421  0.18514654    -0.20100
C1781       C  0.39109237  0.71262942  0.08801083    -0.21500
C1782       C  0.38723773  0.67660112  0.07645634    -0.09600
C1783       C  0.39842231  0.66504192  0.04234101     0.29300
C1784       C  0.41457837  0.68883389  0.02107081    -0.21500
C1785       C  0.42032381  0.72431623  0.03342376    -0.09600
C1786       C  0.40740860  0.73642120  0.06675284     0.29300
F1787       F  0.41179920  0.77058583  0.07979453    -0.20100
H1788       H  0.38154041  0.72252650  0.11361780     0.17700
H1789       H  0.42388776  0.67887077  0.99539124     0.17700
F1790       F  0.39388402  0.63084482  0.02927697    -0.20100
C1791       C  0.49008802  0.82690741  0.07398818    -0.21500
C1792       C  0.49532172  0.82492657  0.03707059    -0.09600
C1793       C  0.52198292  0.84390498  0.02259392     0.29300
C1794       C  0.54583440  0.86054434  0.04476341    -0.21500
C1795       C  0.54315184  0.85864308  0.08173775    -0.09600
C1796       C  0.51411409  0.84352675  0.09638229     0.29300
F1797       F  0.51062018  0.84183507  0.13210261    -0.20100
H1798       H  0.46965407  0.81236789  0.08579922     0.17700
H1799       H  0.56726128  0.87357327  0.03294481     0.17700
F1800       F  0.52717234  0.84246163  0.98708891    -0.20100
C1801       C  0.52194792  0.68282901  0.96454156    -0.21500
C1802       C  0.52303322  0.72060856  0.96327374    -0.09600
C1803       C  0.55195565  0.73621932  0.94863082     0.29300
C1804       C  0.57872636  0.71423856  0.93477584    -0.21500
C1805       C  0.57695764  0.67649451  0.93503930    -0.09600
C1806       C  0.54863324  0.66094527  0.95068991     0.29300
F1807       F  0.54612709  0.62451537  0.95147713    -0.20100
H1808       H  0.50046418  0.66999668  0.97641531     0.17700
H1809       H  0.59980902  0.72677688  0.92185954     0.17700
F1810       F  0.55398025  0.77258470  0.94664302    -0.20100
C1811       C  0.68428954  0.40243790  0.00734679    -0.21500
C1812       C  0.71498650  0.41445431  0.02324211    -0.09600
C1813       C  0.71677129  0.41912865  0.06049950     0.29300
C1814       C  0.68817548  0.41332831  0.08094220    -0.21500
C1815       C  0.65760575  0.40118652  0.06514814    -0.09600
C1816       C  0.65582473  0.39592296  0.02796515     0.29300
F1817       F  0.62737953  0.38265851  0.01155949    -0.20100
H1818       H  0.68206439  0.39858695  0.97875991     0.17700
H1819       H  0.69062719  0.41664989  0.10957325     0.17700
F1820       F  0.74576402  0.42993788  0.07757095    -0.20100
C1821       C  0.82370089  0.52231492  0.00733148    -0.21500
C1822       C  0.81231256  0.49025547  0.02130644    -0.09600
C1823       C  0.81848881  0.48397183  0.05761313     0.29300
C1824       C  0.83366176  0.51017489  0.07953959    -0.21500
C1825       C  0.84284206  0.54310612  0.06591366    -0.09600
C1826       C  0.83838558  0.54865613  0.02931319     0.29300
F1827       F  0.84818072  0.57948786  0.01446934    -0.20100
H1828       H  0.81975258  0.52801784  0.97954494     0.17700
H1829       H  0.83765946  0.50487007  0.10740452     0.17700
F1830       F  0.80880141  0.45323804  0.07253305    -0.20100
C1831       C  0.74288934  0.52285539  0.91767109    -0.21500
C1832       C  0.72815374  0.49091597  0.92828140    -0.09600
C1833       C  0.69230043  0.48699158  0.92362952     0.29300
C1834       C  0.67165627  0.51567952  0.91225346    -0.21500
C1835       C  0.68604518  0.54877263  0.90524636    -0.09600
C1836       C  0.72207852  0.55176363  0.90673221     0.29300
F1837       F  0.73731157  0.58269623  0.89824065    -0.20100
H1838       H  0.77036689  0.52656943  0.92032803     0.17700
H1839       H  0.64411099  0.51221813  0.90998520     0.17700
F1840       F  0.67647576  0.45659157  0.93259408    -0.20100
C1841       C  0.53714844  0.57573678  0.33818999    -0.21500
C1842       C  0.57207713  0.56511183  0.33539666    -0.09600
C1843       C  0.58099973  0.53015533  0.32219185     0.29300
C1844       C  0.55512091  0.50658999  0.31154351    -0.21500
C1845       C  0.52010613  0.51756685  0.31421317    -0.09600
C1846       C  0.51153460  0.55227535  0.32832770     0.29300
F1847       F  0.47832916  0.56403372  0.33232422    -0.20100
H1848       H  0.52928224  0.60195523  0.34961777     0.17700
H1849       H  0.56258063  0.48017812  0.30032539     0.17700
F1850       F  0.61451011  0.51890179  0.31940940    -0.20100
C1851       C  0.74627668  0.68917283  0.32757064    -0.21500
C1852       C  0.73937590  0.72673477  0.32974799    -0.09600
C1853       C  0.71097280  0.74037218  0.34918730     0.29300
C1854       C  0.68799208  0.71684255  0.36287735    -0.21500
C1855       C  0.69283055  0.67936457  0.35721567    -0.09600
C1856       C  0.72294063  0.66552991  0.34087992     0.29300
F1857       F  0.72863359  0.62940451  0.33555810    -0.20100
H1858       H  0.76783946  0.67780299  0.31249985     0.17700
H1859       H  0.66565306  0.72809776  0.37683028     0.17700
F1860       F  0.70342428  0.77633527  0.35155595    -0.20100
C1861       C  0.83639027  0.70909619  0.17240172    -0.21500
C1862       C  0.83933916  0.67238951  0.18056174    -0.09600
C1863       C  0.82983635  0.66172819  0.21438041     0.29300
C1864       C  0.81692290  0.68720303  0.23907556    -0.21500
C1865       C  0.81222053  0.72358060  0.23031174    -0.09600
C1866       C  0.82292291  0.73456054  0.19704633     0.29300
F1867       F  0.81972301  0.76967806  0.18811484    -0.20100
H1868       H  0.84486020  0.71826449  0.14705466     0.17700
H1869       H  0.80872051  0.67777939  0.26437848     0.17700
F1870       F  0.83242625  0.62664630  0.22357436    -0.20100
C1871       C  0.70649790  0.79118188  0.19727206    -0.21500
C1872       C  0.71047525  0.80049078  0.23349262    -0.09600
C1873       C  0.68551198  0.82315725  0.25056113     0.29300
C1874       C  0.65888169  0.83896075  0.23078582    -0.21500
C1875       C  0.65678044  0.83203352  0.19397806    -0.09600
C1876       C  0.67956558  0.80631290  0.17772623     0.29300
F1877       F  0.67706549  0.79741965  0.14246137    -0.20100
H1878       H  0.72432628  0.77221970  0.18393949     0.17700
H1879       H  0.64158461  0.85864959  0.24378699     0.17700
F1880       F  0.68782558  0.83147624  0.28589985    -0.20100
C1881       C  0.27131442  0.56913815  0.92999653    -0.21500
C1882       C  0.27706357  0.56970714  0.96700213    -0.09600
C1883       C  0.30905052  0.58071558  0.98068999     0.29300
C1884       C  0.33470979  0.59004553  0.95793062    -0.21500
C1885       C  0.32894633  0.58981664  0.92109177    -0.09600
C1886       C  0.29704824  0.57900872  0.90715981     0.29300
F1887       F  0.29053576  0.57855436  0.87163701    -0.20100
H1888       H  0.24722040  0.56020712  0.91850058     0.17700
H1889       H  0.35855748  0.59951275  0.96958596     0.17700
F1890       F  0.31598860  0.58222651  0.01607632    -0.20100
C1891       C  0.14481020  0.43993008  0.96204403    -0.21500
C1892       C  0.14256099  0.44580129  0.92540257    -0.09600
C1893       C  0.15953879  0.47496928  0.91162753     0.29300
C1894       C  0.17863788  0.49741496  0.93397035    -0.21500
C1895       C  0.18205928  0.49099654  0.97048227    -0.09600
C1896       C  0.16438015  0.46230457  0.98450343     0.29300
F1897       F  0.16612215  0.45561792  0.01968048    -0.20100
H1898       H  0.13120424  0.41814467  0.97340031     0.17700
H1899       H  0.19189077  0.51909387  0.92203693     0.17700
F1900       F  0.15876016  0.48127386  0.87632938    -0.20100
C1901       C  0.28022346  0.44056170  0.09815488    -0.21500
C1902       C  0.31478137  0.44987914  0.10367146    -0.09600
C1903       C  0.32558290  0.48326112  0.09267895     0.29300
C1904       C  0.30283893  0.50545424  0.07386064    -0.21500
C1905       C  0.26888997  0.49488755  0.06587626    -0.09600
C1906       C  0.25735256  0.46288568  0.07974558     0.29300
F1907       F  0.22455582  0.45220279  0.07428941    -0.20100
H1908       H  0.27082331  0.41559924  0.10786712     0.17700
H1909       H  0.31260225  0.53016679  0.06404319     0.17700
F1910       F  0.35847119  0.49358358  0.09828644    -0.20100
C1911       C  0.59172849  0.47775026  0.74125847    -0.21500
C1912       C  0.57699271  0.51037482  0.75485669    -0.09600
C1913       C  0.57964699  0.51870446  0.79165980     0.29300
C1914       C  0.59572862  0.49407102  0.81418477    -0.21500
C1915       C  0.60871330  0.46065744  0.80054476    -0.09600
C1916       C  0.60691185  0.45293071  0.76367348     0.29300
F1917       F  0.62017427  0.42155515  0.74888491    -0.20100
H1918       H  0.59004336  0.47047860  0.71319308     0.17700
H1919       H  0.59741503  0.50085357  0.84238364     0.17700
F1920       F  0.56523053  0.54956757  0.80630612    -0.20100
C1921       C  0.45001444  0.59478615  0.74550887    -0.21500
C1922       C  0.48570009  0.59972034  0.74873132    -0.09600
C1923       C  0.49839981  0.61974722  0.77814737     0.29300
C1924       C  0.47637989  0.63059941  0.80582609    -0.21500
C1925       C  0.44144010  0.62200956  0.80405796    -0.09600
C1926       C  0.42813688  0.60533437  0.77313063     0.29300
F1927       F  0.39450911  0.59659391  0.77074894    -0.20100
H1928       H  0.43920592  0.57966944  0.72315881     0.17700
H1929       H  0.48668405  0.64518222  0.82884824     0.17700
F1930       F  0.53236675  0.62677954  0.78096697    -0.20100
C1931       C  0.42974816  0.47999298  0.65530277    -0.21500
C1932       C  0.44063370  0.44345065  0.65444852    -0.09600
C1933       C  0.47579475  0.43457039  0.65942212     0.29300
C1934       C  0.49908948  0.46178726  0.66651050    -0.21500
C1935       C  0.48778995  0.49829947  0.66920499    -0.09600
C1936       C  0.45292826  0.50709496  0.66208672     0.29300
F1937       F  0.44058594  0.54174699  0.66308436    -0.20100
H1938       H  0.40315686  0.48796263  0.64993838     0.17700
H1939       H  0.52577376  0.45397017  0.67156446     0.17700
F1940       F  0.48779184  0.39973190  0.65750295    -0.20100
C1941       C  0.57888227  0.28600834  0.93013942    -0.21500
C1942       C  0.56426341  0.30277253  0.96070405    -0.09600
C1943       C  0.56736878  0.34020603  0.96687994     0.29300
C1944       C  0.58441741  0.36032695  0.94255272    -0.21500
C1945       C  0.59893415  0.34357480  0.91196034    -0.09600
C1946       C  0.59610494  0.30610596  0.90594788     0.29300
F1947       F  0.61090177  0.28856281  0.87743785    -0.20100
H1948       H  0.57687456  0.25720606  0.92482910     0.17700
H1949       H  0.58662229  0.38908665  0.94795204     0.17700
F1950       F  0.55321683  0.35772913  0.99575514    -0.20100
C1951       C  0.49076902  0.33575365  0.06604025    -0.21500
C1952       C  0.49033107  0.29781348  0.06343498    -0.09600
C1953       C  0.46659765  0.27965203  0.08354648     0.29300
C1954       C  0.44069551  0.29912109  0.10163428    -0.21500
C1955       C  0.43877610  0.33691356  0.10088795    -0.09600
C1956       C  0.46512571  0.35529677  0.08475919     0.29300
F1957       F  0.46487382  0.39195711  0.08512570    -0.20100
H1958       H  0.50913955  0.35044895  0.05128509     0.17700
H1959       H  0.42185477  0.28456373  0.11596103     0.17700
F1960       F  0.46707476  0.24301450  0.08380214    -0.20100
C1961       C  0.44635278  0.20427471  0.97879437    -0.21500
C1962       C  0.47916925  0.21114047  0.96573772    -0.09600
C1963       C  0.48855007  0.19706259  0.93185432     0.29300
C1964       C  0.46504355  0.17789309  0.91109260    -0.21500
C1965       C  0.43192268  0.17187261  0.92368832    -0.09600
C1966       C  0.42292491  0.18480632  0.95810798     0.29300
F1967       F  0.39164403  0.17864648  0.97201550    -0.20100
H1968       H  0.43831189  0.21476428  0.00474523     0.17700
H1969       H  0.47300468  0.16751177  0.88510849     0.17700
F1970       F  0.52027292  0.20204933  0.91843956    -0.20100
C1971       C  0.25898493  0.17792547  0.79086753    -0.21500
C1972       C  0.27142230  0.19016539  0.75882019    -0.09600
C1973       C  0.30672446  0.18441862  0.75084403     0.29300
C1974       C  0.32892005  0.16799802  0.77506998    -0.21500
C1975       C  0.31675497  0.15768452  0.80789971    -0.09600
C1976       C  0.28135822  0.16221762  0.81538849     0.29300
F1977       F  0.26813710  0.15153736  0.84637025    -0.20100
H1978       H  0.23205717  0.18182861  0.79769836     0.17700
H1979       H  0.35589641  0.16416185  0.76840112     0.17700
F1980       F  0.32055410  0.19632723  0.72066639    -0.20100
C1981       C  0.30257287  0.26243170  0.66038767    -0.21500
C1982       C  0.26976505  0.27701199  0.66943843    -0.09600
C1983       C  0.26255583  0.31395996  0.66473888     0.29300
C1984       C  0.28858386  0.33616145  0.65505598    -0.21500
C1985       C  0.32208618  0.32211127  0.64880343    -0.09600
C1986       C  0.32864241  0.28467280  0.65036385     0.29300
F1987       F  0.36007583  0.26944235  0.64254669    -0.20100
H1988       H  0.30884815  0.23407461  0.66327727     0.17700
H1989       H  0.28229146  0.36465235  0.65256713     0.17700
F1990       F  0.23106835  0.32942139  0.67162629    -0.20100
C1991       C  0.14612971  0.29421961  0.81024031    -0.21500
C1992       C  0.14368653  0.33143855  0.80413649    -0.09600
C1993       C  0.15911766  0.34455344  0.77389855     0.29300
C1994       C  0.17790119  0.32094667  0.75116785    -0.21500
C1995       C  0.18146394  0.28389359  0.75807625    -0.09600
C1996       C  0.16461386  0.27062262  0.78742408     0.29300
F1997       F  0.16618100  0.23491259  0.79433628    -0.20100
H1998       H  0.13335779  0.28310983  0.83260344     0.17700
H1999       H  0.19062935  0.33206858  0.72883004     0.17700
F2000       F  0.15679374  0.38017457  0.76669067    -0.20100
C2001       C  0.49387469  0.80104376  0.57882252    -0.21500
C2002       C  0.48202324  0.76735164  0.56642179    -0.09600
C2003       C  0.44689360  0.76002673  0.57009293     0.29300
C2004       C  0.42417049  0.78642862  0.58415541    -0.21500
C2005       C  0.43585229  0.82035210  0.59575992    -0.09600
C2006       C  0.47112858  0.82735710  0.59323561     0.29300
F2007       F  0.48398432  0.85917246  0.60543449    -0.20100
H2008       H  0.52072623  0.80754795  0.57662045     0.17700
H2009       H  0.39735856  0.77985549  0.58670132     0.17700
F2010       F  0.43406982  0.72764046  0.55966687    -0.20100
C2011       C  0.31962272  0.97573342  0.61241933    -0.21500
C2012       C  0.31335278  0.93877308  0.61325253    -0.09600
C2013       C  0.28057796  0.92646570  0.60331099     0.29300
C2014       C  0.25580259  0.95046025  0.58994207    -0.21500
C2015       C  0.26365193  0.98672378  0.58521156    -0.09600
C2016       C  0.29513146  0.99949362  0.59850141     0.29300
F2017       F  0.30366677  0.03428012  0.59510303    -0.20100
H2018       H  0.34399308  0.98627634  0.62150465     0.17700
H2019       H  0.23163163  0.93974887  0.58044410     0.17700
F2020       F  0.27284022  0.89109068  0.60482744    -0.20100
C2021       C  0.26440089  0.07240411  0.45314482    -0.21500
C2022       C  0.27270633  0.06638159  0.48883808    -0.09600
C2023       C  0.30478338  0.07751542  0.50256620     0.29300
C2024       C  0.32768230  0.09434718  0.48099455    -0.21500
C2025       C  0.31931068  0.10026944  0.44538331    -0.09600
C2026       C  0.28744213  0.08882863  0.43148670     0.29300
F2027       F  0.27810048  0.09377446  0.39709000    -0.20100
H2028       H  0.24020319  0.06384850  0.44157108     0.17700
H2029       H  0.35178967  0.10330181  0.49247141     0.17700
F2030       F  0.31456937  0.07186026  0.53661382    -0.20100
C2031       C  0.18017381  0.94257439  0.49971903    -0.21500
C2032       C  0.18449502  0.97767419  0.48802437    -0.09600
C2033       C  0.17331060  0.98628498  0.45358502     0.29300
C2034       C  0.15901953  0.95983501  0.43119984    -0.21500
C2035       C  0.15574641  0.92447016  0.44269541    -0.09600
C2036       C  0.16644638  0.91613229  0.47730046     0.29300
F2037       F  0.16336285  0.88256196  0.48993194    -0.20100
H2038       H  0.18866489  0.93485742  0.52593712     0.17700
H2039       H  0.15022144  0.96719501  0.40495598     0.17700
F2040       F  0.17648591  0.01999508  0.44132841    -0.20100
C2041       C  0.60269751  0.81975345  0.48152804    -0.21500
C2042       C  0.60906370  0.81125929  0.44552708    -0.09600
C2043       C  0.60224971  0.77636037  0.43170187     0.29300
C2044       C  0.58695360  0.75166673  0.45285903    -0.21500
C2045       C  0.57805225  0.76113087  0.48810014    -0.09600
C2046       C  0.58770904  0.79489207  0.50281291     0.29300
F2047       F  0.58110382  0.80483700  0.53719815    -0.20100
H2048       H  0.60918218  0.84579224  0.49334377     0.17700
H2049       H  0.58017949  0.72589206  0.44074167     0.17700
F2050       F  0.60946197  0.76613791  0.39752156    -0.20100
C2051       C  0.57922775  0.99449141  0.32292350    -0.21500
C2052       C  0.57557682  0.98576406  0.28646064    -0.09600
C2053       C  0.58897038  0.95218901  0.27318299     0.29300
C2054       C  0.60342206  0.92717645  0.29631193    -0.21500
C2055       C  0.60518648  0.93517380  0.33302906    -0.09600
C2056       C  0.59369217  0.96960910  0.34598039     0.29300
F2057       F  0.59624851  0.97951486  0.38097535    -0.20100
H2058       H  0.56966241  0.02019584  0.33412692     0.17700
H2059       H  0.61344286  0.90157939  0.28536144     0.17700
F2060       F  0.58746788  0.94302682  0.23803143    -0.20100
C2061       C  0.47828638  0.93282979  0.16335902    -0.21500
C2062       C  0.44410272  0.94488463  0.15736613    -0.09600
C2063       C  0.43459046  0.98103529  0.16608790     0.29300
C2064       C  0.45838097  0.00387767  0.18210712    -0.21500
C2065       C  0.49178577  0.99096035  0.19082490    -0.09600
C2066       C  0.50194417  0.95549030  0.17989500     0.29300
F2067       F  0.53407730  0.94186510  0.18675376    -0.20100
H2068       H  0.48673171  0.90552729  0.15579704     0.17700
H2069       H  0.44973953  0.03115053  0.18967482     0.17700
F2070       F  0.40210201  0.99424885  0.16019548    -0.20100
C2071       C  0.49032980  0.07792994  0.32379413    -0.21500
C2072       C  0.48646927  0.07867729  0.28670694    -0.09600
C2073       C  0.45655820  0.09531239  0.27225263     0.29300
C2074       C  0.43042659  0.10900989  0.29462671    -0.21500
C2075       C  0.43371562  0.10643726  0.33164035    -0.09600
C2076       C  0.46415896  0.09106138  0.34599239     0.29300
F2077       F  0.46855202  0.08801856  0.38159337    -0.20100
H2078       H  0.51284422  0.06525576  0.33591315     0.17700
H2079       H  0.40785899  0.12208712  0.28297846     0.17700
F2080       F  0.45220106  0.09772379  0.23657615    -0.20100
C2081       C  0.47498066  0.65094369  0.41331610    -0.21500
C2082       C  0.44132106  0.64377369  0.42350737    -0.09600
C2083       C  0.43094254  0.65276269  0.45858022     0.29300
C2084       C  0.45385254  0.66769628  0.48281895    -0.21500
C2085       C  0.48707745  0.67628619  0.47261932    -0.09600
C2086       C  0.49754856  0.66781706  0.43740108     0.29300
F2087       F  0.52883062  0.67702896  0.42566961    -0.20100
H2088       H  0.48371985  0.64384224  0.38666216     0.17700
H2089       H  0.44476826  0.67378020  0.50952963     0.17700
F2090       F  0.39865420  0.64687040  0.47008689    -0.20100
C2091       C  0.18365053  0.74973158  0.30155508    -0.21500
C2092       C  0.19173964  0.76495770  0.26919060    -0.09600
C2093       C  0.18003408  0.80051923  0.26273119     0.29300
C2094       C  0.16242499  0.82083395  0.28898977    -0.21500
C2095       C  0.15608909  0.80613993  0.32201197    -0.09600
C2096       C  0.16629758  0.77005786  0.32782326     0.29300
F2097       F  0.15964807  0.75416834  0.35882348    -0.20100
H2098       H  0.19199575  0.72241006  0.30739951     0.17700
H2099       H  0.15395995  0.84822483  0.28346821     0.17700
F2100       F  0.18631795  0.81616978  0.23155723    -0.20100
C2101       C  0.31516637  0.66573737  0.25137781    -0.21500
C2102       C  0.28023087  0.67185619  0.25984289    -0.09600
C2103       C  0.26753101  0.65753795  0.29108715     0.29300
C2104       C  0.29002452  0.64062944  0.31470395    -0.21500
C2105       C  0.32535772  0.63706352  0.30743890    -0.09600
C2106       C  0.33762314  0.64886877  0.27503104     0.29300
F2107       F  0.37150313  0.64548315  0.26667996    -0.20100
H2108       H  0.32577682  0.67600671  0.22742056     0.17700
H2109       H  0.27966091  0.63038924  0.33880878     0.17700
F2110       F  0.23372589  0.66112544  0.29977968    -0.20100
C2111       C  0.32065204  0.76607506  0.18434521    -0.21500
C2112       C  0.28537441  0.77528477  0.18764002    -0.09600
C2113       C  0.27325749  0.80973921  0.17785735     0.29300
C2114       C  0.29616055  0.83450689  0.16587317    -0.21500
C2115       C  0.33147190  0.82542556  0.16304739    -0.09600
C2116       C  0.34353319  0.79084838  0.17233739     0.29300
F2117       F  0.37735583  0.78073528  0.16962583    -0.20100
H2118       H  0.33093273  0.73992431  0.19194067     0.17700
H2119       H  0.28591993  0.86050607  0.15775132     0.17700
F2120       F  0.23936747  0.81970758  0.17983089    -0.20100
C2121       C  0.99258183  0.92648992  0.69899680    -0.21500
C2122       C  0.99098551  0.96445327  0.69930476    -0.09600
C2123       C  0.96293739  0.98218698  0.68264990     0.29300
C2124       C  0.93702783  0.96224350  0.66645530    -0.21500
C2125       C  0.93885878  0.92433481  0.66586638    -0.09600
C2126       C  0.96678766  0.90654914  0.68260700     0.29300
F2127       F  0.96957378  0.86992046  0.68274651    -0.20100
H2128       H  0.01353162  0.91197823  0.71195686     0.17700
H2129       H  0.91631153  0.97662378  0.65290179     0.17700
F2130       F  0.96064510  0.01874282  0.68143671    -0.20100
C2131       C  0.10181986  0.97712553  0.81374866    -0.21500
C2132       C  0.08404911  0.96042911  0.78526987    -0.09600
C2133       C  0.08340686  0.92235119  0.78271378     0.29300
C2134       C  0.09864009  0.90187559  0.80921923    -0.21500
C2135       C  0.11503343  0.91878503  0.83830837    -0.09600
C2136       C  0.11705962  0.95661465  0.84011822     0.29300
F2137       F  0.13450108  0.97383733  0.86686066    -0.20100
H2138       H  0.10315127  0.00626344  0.81625160     0.17700
H2139       H  0.09737775  0.87272085  0.80715602     0.17700
F2140       F  0.06712949  0.90469144  0.75547739    -0.20100
C2141       C  0.96018928  0.10729472  0.78331502    -0.21500
C2142       C  0.96250875  0.10720808  0.82053094    -0.09600
C2143       C  0.99067386  0.08941225  0.83675155     0.29300
C2144       C  0.01442915  0.06944560  0.81591966    -0.21500
C2145       C  0.00983879  0.06627930  0.77882424    -0.09600
C2146       C  0.98358457  0.08695468  0.76256680     0.29300
F2147       F  0.97891364  0.08521957  0.72679000    -0.20100
H2148       H  0.93941474  0.12204519  0.77021492     0.17700
H2149       H  0.03441253  0.05375866  0.82921402     0.17700
F2150       F  0.99359936  0.08850561  0.87263563    -0.20100
C2151       C  0.98766705  0.68379404  0.93886386    -0.21500
C2152       C  0.98162248  0.68166459  0.97545543    -0.09600
C2153       C  0.95168085  0.66563888  0.98695163     0.29300
C2154       C  0.92773127  0.65314363  0.96229312    -0.21500
C2155       C  0.93341511  0.65572467  0.92574340    -0.09600
C2156       C  0.96383437  0.67076588  0.91408760     0.29300
F2157       F  0.97052647  0.67302956  0.87893246    -0.20100
H2158       H  0.01030049  0.69654716  0.92931720     0.17700
H2159       H  0.90513491  0.64039516  0.97197363     0.17700
F2160       F  0.94539024  0.66216056  0.02203385    -0.20100
C2161       C  0.99173133  0.79942777  0.08353885    -0.21500
C2162       C  0.98391452  0.76315125  0.07660419    -0.09600
C2163       C  0.95291026  0.75011161  0.08920019     0.29300
C2164       C  0.93014707  0.77299233  0.10815557    -0.21500
C2165       C  0.93762365  0.80940637  0.11439046    -0.09600
C2166       C  0.96860435  0.82255956  0.10174674     0.29300
F2167       F  0.97624032  0.85795374  0.10603360    -0.20100
H2168       H  0.01490668  0.81052674  0.07326805     0.17700
H2169       H  0.90672762  0.76207057  0.11807294     0.17700
F2170       F  0.94405030  0.71549351  0.08230126    -0.20100
C2171       C  0.08936787  0.79052634  0.01061189    -0.21500
C2172       C  0.07831862  0.75812778  0.99424884    -0.09600
C2173       C  0.08890518  0.74874109  0.95936895     0.29300
C2174       C  0.10728555  0.77283988  0.94044745    -0.21500
C2175       C  0.11599801  0.80642393  0.95586964    -0.09600
C2176       C  0.10791918  0.81463714  0.99158652     0.29300
F2177       F  0.11739530  0.84603383  0.00806521    -0.20100
H2178       H  0.08210734  0.79825934  0.03759796     0.17700
H2179       H  0.11413077  0.76527816  0.91330586     0.17700
F2180       F  0.08004414  0.71726658  0.94258263    -0.20100
C2181       C  0.83115409  0.06793737  0.98502825    -0.21500
C2182       C  0.79936757  0.05623367  0.97123754    -0.09600
C2183       C  0.79108076  0.06198704  0.93541649     0.29300
C2184       C  0.81397328  0.07920671  0.91419576    -0.21500
C2185       C  0.84542876  0.09148927  0.92810535    -0.09600
C2186       C  0.85407418  0.08524110  0.96370340     0.29300
F2187       F  0.88438049  0.09610717  0.97809118    -0.20100
H2188       H  0.83850271  0.06359489  0.01242041     0.17700
H2189       H  0.80637231  0.08386935  0.88693384     0.17700
F2190       F  0.76107712  0.05089629  0.92051433    -0.20100
C2191       C  0.68417956  0.95189551  0.99809516    -0.21500
C2192       C  0.69824581  0.98185625  0.98241343    -0.09600
C2193       C  0.68571783  0.99194298  0.94877819     0.29300
C2194       C  0.66231127  0.97047046  0.93007133    -0.21500
C2195       C  0.65032415  0.93902734  0.94469493    -0.09600
C2196       C  0.66038425  0.93075476  0.97959723     0.29300
F2197       F  0.64739892  0.90222444  0.99597025    -0.20100
H2198       H  0.69240945  0.94393154  0.02432690     0.17700
H2199       H  0.65400241  0.97823553  0.90379291     0.17700
F2200       F  0.69654495  0.02200624  0.93337859    -0.20100
C2201       C  0.79604971  0.92817568  0.11002293    -0.21500
C2202       C  0.83188393  0.93169585  0.11298854    -0.09600
C2203       C  0.84773789  0.95906254  0.09519152     0.29300
C2204       C  0.82798311  0.98204633  0.07414508    -0.21500
C2205       C  0.79224424  0.97753869  0.06980072    -0.09600
C2206       C  0.77630909  0.95081405  0.08868937     0.29300
F2207       F  0.74189298  0.94580667  0.08600382    -0.20100
H2208       H  0.78315962  0.90772863  0.12425574     0.17700
H2209       H  0.84116557  0.00221373  0.05984764     0.17700
F2210       F  0.88243561  0.96238705  0.09652766    -0.20100
C2211       C  0.80504104  0.68784426  0.75237498    -0.21500
C2212       C  0.77019002  0.69234108  0.76195080    -0.09600
C2213       C  0.75916907  0.67795043  0.79377556     0.29300
C2214       C  0.78292267  0.66163125  0.81641824    -0.21500
C2215       C  0.81799557  0.65872814  0.80768802    -0.09600
C2216       C  0.82883415  0.67141243  0.77508957     0.29300
F2217       F  0.86243828  0.66882287  0.76547025    -0.20100
H2218       H  0.81439589  0.69865971  0.72809903     0.17700
H2219       H  0.77360592  0.65090775  0.84076579     0.17700
F2220       F  0.72562931  0.68043701  0.80366132    -0.20100
C2221       C  0.66868566  0.76761736  0.80200786    -0.21500
C2222       C  0.68038598  0.78433106  0.77163345    -0.09600
C2223       C  0.67271941  0.82136311  0.76771404     0.29300
C2224       C  0.65472240  0.84112707  0.79416548    -0.21500
C2225       C  0.64434812  0.82467480  0.82517851    -0.09600
C2226       C  0.65126041  0.78752392  0.82870159     0.29300
F2227       F  0.64119187  0.77022414  0.85779233    -0.20100
H2228       H  0.67395430  0.73912960  0.80580018     0.17700
H2229       H  0.64938093  0.86962183  0.79053683     0.17700
F2230       F  0.68376868  0.83903356  0.73926469    -0.20100
C2231       C  0.76179679  0.82201597  0.67778637    -0.21500
C2232       C  0.76379253  0.78406432  0.67549743    -0.09600
C2233       C  0.78969876  0.76661083  0.65468291     0.29300
C2234       C  0.81451715  0.78671051  0.63885865    -0.21500
C2235       C  0.81416609  0.82444389  0.64361462    -0.09600
C2236       C  0.78695358  0.84212595  0.66227920     0.29300
F2237       F  0.78577582  0.87859290  0.66746699    -0.20100
H2238       H  0.74231888  0.83618381  0.69382761     0.17700
H2239       H  0.83447094  0.77259925  0.62338619     0.17700
F2240       F  0.79226586  0.73002917  0.65124735    -0.20100
loop_ 
_geom_bond_atom_site_label_1 
_geom_bond_atom_site_label_2 
_geom_bond_distance 
_geom_bond_site_symmetry_2 
_ccdc_geom_bond_type 
O1           Ni7   1.897       .  S
O1           C22   1.264       .  A
O2          Ni25   1.973       .  S
O2           C11   1.288       .  A
O3           Ni7   1.920       .  S
O3          Ni25   1.951       .  S
O3          Ni19   1.918       .  S
O3           H26   0.967       .  S
C4           O21   1.277       .  A
C4           O13   1.271       .  A
C4          C680   1.504       .  S
O5          Ni24   1.943       .  S
O5           C11   1.277       .  A
O6          Ni24   1.958       .  S
O6            C8   1.285       .  A
Ni7          O10   1.890       .  S
Ni7          O12   1.946       .  S
C8           O18   1.283       .  A
C8          C412   1.519       .  S
O9          Ni25   1.960       .  S
O9           C15   1.278       .  A
O10          C15   1.261       .  A
C11         C976   1.524       .  S
O12          C14   1.281       .  A
O13         Ni24   1.912       .  S
C14          O20   1.282       .  A
C14         C886   1.499       .  S
C15         C618   1.497       .  S
H16          O17   0.966       .  S
O17         Ni25   1.905       .  S
O17         Ni19   1.951       .  S
O17         Ni24   1.912       .  S
O18         Ni19   1.981       .  S
Ni19         O23   1.980       .  S
Ni19         O21   1.953       .  S
O20         Ni25   1.970       .  S
C22          O23   1.288       .  A
C22        C1057   1.504       .  S
O27         Ni33   1.885       .  S
O27          C48   1.263       .  A
O28         Ni51   1.986       .  S
O28          C37   1.289       .  A
O29         Ni33   1.919       .  S
O29         Ni51   1.950       .  S
O29         Ni45   1.948       .  S
O29          H52   0.967       .  S
C30          O47   1.289       .  A
C30          O39   1.276       .  A
C30         C632   1.521       .  S
O31         Ni50   1.934       .  S
O31          C37   1.278       .  A
O32         Ni50   1.960       .  S
O32          C34   1.283       .  A
Ni33         O36   1.897       .  S
Ni33         O38   1.940       .  S
C34          O44   1.275       .  A
C34        C1236   1.511       .  S
O35         Ni51   1.998       .  S
O35          C41   1.285       .  A
O36          C41   1.264       .  A
C37         C487   1.533       .  S
O38          C40   1.279       .  A
O39         Ni50   1.934       .  S
C40          O46   1.283       .  A
C40        C1056   1.498       .  S
C41         C853   1.529       .  S
H42          O43   0.966       .  S
O43         Ni51   1.923       .  S
O43         Ni45   1.933       .  S
O43         Ni50   1.911       .  S
O44         Ni45   1.962       .  S
Ni45         O49   1.980       .  S
Ni45         O47   1.975       .  S
O46         Ni51   1.970       .  S
C48          O49   1.288       .  A
C48         C726   1.495       .  S
C53        C2232   1.472       .  S
C53          N54   1.354       .  A
C53          N58   1.359       .  A
N54          C55   1.351       .  A
C55        C2212   1.472       .  S
C55          N56   1.351       .  A
N56          C57   1.353       .  A
C57        C2222   1.477       .  S
C57          N58   1.358       .  A
C59        C2182   1.474       .  S
C59          N60   1.349   1_556  A
C59          N64   1.357       .  A
N60          C61   1.350   1_545  A
C61        C2205   1.473       .  S
C61          N62   1.357       .  A
N62          C63   1.358   1_554  A
C63        C2192   1.482       .  S
C63          N64   1.358   1_565  A
C65        C2152   1.462   1_454  S
C65          N66   1.350   1_554  A
C65          N70   1.348   1_455  A
N66          C67   1.354   1_556  A
C67        C2172   1.469   1_554  S
C67          N68   1.356       .  A
N68          C69   1.354       .  A
C69        C2162   1.466   1_455  S
C69          N70   1.349   1_455  A
C71        C2145   1.469       .  S
C71          N72   1.354       .  A
C71          N76   1.353       .  A
N72          C73   1.352   1_545  A
C73        C2122   1.471   1_455  S
C73          N74   1.353       .  A
N74          C75   1.353       .  A
C75        C2132   1.471       .  S
C75          N76   1.355   1_565  A
O77         Ni85   1.899       .  S
O77          C87   1.278       .  A
O78         Ni85   1.959       .  S
O78          C88   1.291       .  A
O79         Ni85   1.964       .  S
O79          C89   1.291       .  A
O80         Ni85   1.913       .  S
O80          C90   1.282       .  A
O81         Ni86   1.882       .  S
O81          C90   1.276       .  A
O82         Ni86   1.918       .  S
O82          C89   1.283       .  A
O83         Ni86   1.938       .  S
O83          C88   1.283       .  A
O84         Ni86   1.905       .  S
O84          C87   1.280       .  A
Ni85        Ni86   2.384       .  S
C87        C2135   1.460       .  S
C88         C246   1.524       .  S
C89         C294   1.522       .  S
C90        C2175   1.463       .  S
O91         Ni99   1.891       .  S
O91         C101   1.276       .  A
O92         Ni99   1.957       .  S
O92         C102   1.290       .  A
O93         Ni99   1.966       .  S
O93         C103   1.295       .  A
O94         Ni99   1.914       .  S
O94         C104   1.282       .  A
O95        Ni100   1.892       .  S
O95         C104   1.277       .  A
O96        Ni100   1.953       .  S
O96         C103   1.287       .  A
O97        Ni100   1.958       .  S
O97         C102   1.293       .  A
O98        Ni100   1.911       .  S
O98         C101   1.282       .  A
Ni99       Ni100   2.385       .  S
C101       C2165   1.464       .  S
C102        C510   1.544       .  S
C103        C350   1.544       .  S
C104       C2202   1.463       .  S
O105       Ni113   1.904       .  S
O105        C115   1.278       .  A
O106       Ni113   1.964       .  S
O106        C116   1.295       .  A
O107       Ni113   1.963       .  S
O107        C117   1.290       .  A
O108       Ni113   1.904       .  S
O108        C118   1.281       .  A
O109       Ni114   1.895       .  S
O109        C118   1.278       .  A
O110       Ni114   1.925       .  S
O110        C117   1.287       .  A
O111       Ni114   1.956       .  S
O111        C116   1.287       .  A
O112       Ni114   1.913       .  S
O112        C115   1.282       .  A
Ni113      Ni114   2.384       .  S
C115       C2235   1.468       .  S
C116        C810   1.538       .  S
C117        C338   1.526       .  S
C118       C2125   1.465       .  S
O119       Ni127   1.909       .  S
O119        C129   1.280       .  A
O120       Ni127   1.937       .  S
O120        C130   1.283       .  A
O121       Ni127   1.921       .  S
O121        C131   1.287       .  A
O122       Ni127   1.897       .  S
O122        C132   1.278       .  A
O123       Ni128   1.897       .  S
O123        C132   1.279       .  A
O124       Ni128   1.924       .  S
O124        C131   1.280       .  A
O125       Ni128   1.913       .  S
O125        C130   1.284       .  A
O126       Ni128   1.893       .  S
O126        C129   1.278       .  A
Ni127      Ni128   2.390       .  S
C129       C2215   1.467       .  S
C130        C275   1.488       .  S
C131        C781   1.486       .  S
C132       C2155   1.460       .  S
O133       Ni141   1.915       .  S
O133        C143   1.282       .  A
O134       Ni141   1.958       .  S
O134        C144   1.291       .  A
O135       Ni141   1.948       .  S
O135        C145   1.286       .  A
O136       Ni141   1.898       .  S
O136        C146   1.277       .  A
O137       Ni142   1.922       .  S
O137        C146   1.284       .  A
O138       Ni142   1.963       .  S
O138        C145   1.288       .  A
O139       Ni142   1.953       .  S
O139        C144   1.289       .  A
O140       Ni142   1.908       .  S
O140        C143   1.280       .  A
Ni141      Ni142   2.380       .  S
C143       C2195   1.476       .  S
C144        C226   1.535       .  S
C145        C376   1.533       .  S
C146       C2225   1.475       .  S
O147       Ni155   1.918       .  S
O147        C157   1.283       .  A
O148       Ni155   1.950       .  S
O148        C158   1.288       .  A
O149       Ni155   1.947       .  S
O149        C159   1.285       .  A
O150       Ni155   1.907       .  S
O150        C160   1.279       .  A
O151       Ni156   1.903       .  S
O151        C160   1.280       .  A
O152       Ni156   1.925       .  S
O152        C159   1.284       .  A
O153       Ni156   1.908       .  S
O153        C158   1.280       .  A
O154       Ni156   1.889       .  S
O154        C157   1.276       .  A
Ni155      Ni156   2.385       .  S
C157       C2185   1.471       .  S
C158       C1161   1.493       .  S
C159        C550   1.502       .  S
C160       C2142   1.465       .  S
O161       Ni167   1.923       .  S
O161        C182   1.275       .  A
O162       Ni185   1.949       .  S
O162        C171   1.270       .  A
O163       Ni167   1.918       .  S
O163       Ni185   1.928       .  S
O163       Ni179   1.932       .  S
O163        H186   0.966       .  S
C164        O181   1.299       .  A
C164        O173   1.276       .  A
C164        C713   1.506       .  S
O165       Ni184   1.887       .  S
O165        C171   1.264       .  A
O166       Ni184   1.946       .  S
O166        C168   1.274       .  A
Ni167       O170   1.947       .  S
Ni167       O172   1.967       .  S
C168        O178   1.276       .  A
C168        C633   1.525       .  S
O169       Ni185   1.946       .  S
O169        C175   1.282       .  A
O170        C175   1.279       .  A
C171       C1190   1.483       .  S
O172        C174   1.280       .  A
O173       Ni184   1.917       .  S
C174        O180   1.278       .  A
C174        C949   1.534       .  S
C175       C1088   1.507       .  S
H176        O177   0.966       .  S
O177       Ni185   1.925       .  S
O177       Ni179   1.921       .  S
O177       Ni184   1.916       .  S
O178       Ni179   1.972       .  S
Ni179       O183   1.966       .  S
Ni179       O181   1.982       .  S
O180       Ni185   1.979       .  S
C182        O183   1.281       .  A
C182        C413   1.513       .  S
O187       Ni193   1.928       .  S
O187        C208   1.275       .  A
O188       Ni211   1.971       .  S
O188        C197   1.287       .  A
O189       Ni193   1.922       .  S
O189       Ni211   1.937       .  S
O189       Ni205   1.913       .  S
O189        H212   0.966       .  S
C190        O207   1.282       .  A
C190        O199   1.263       .  A
C190       C1089   1.507       .  S
O191       Ni210   1.903       .  S
O191        C197   1.267       .  A
O192       Ni210   1.942       .  S
O192        C194   1.280       .  A
Ni193       O196   1.923       .  S
Ni193       O198   1.963       .  S
C194        O204   1.286       .  A
C194        C994   1.512       .  S
O195       Ni211   1.969       .  S
O195        C201   1.285       .  A
O196        C201   1.273       .  A
C197        C619   1.500       .  S
O198        C200   1.282       .  A
O199       Ni210   1.904       .  S
C200        O206   1.285       .  A
C200        C486   1.537       .  S
C201        C866   1.518       .  S
H202        O203   0.966       .  S
O203       Ni211   1.934       .  S
O203       Ni205   1.946       .  S
O203       Ni210   1.925       .  S
O204       Ni205   1.990       .  S
Ni205       O209   1.976       .  S
Ni205       O207   1.970       .  S
O206       Ni211   1.996       .  S
C208        O209   1.288       .  A
C208       C1216   1.520       .  S
O213       Ni219   1.930       .  S
O213        C234   1.275       .  A
O214       Ni237   1.969       .  S
O214        C223   1.285       .  A
O215       Ni219   1.920       .  S
O215       Ni237   1.943       .  S
O215       Ni231   1.911       .  S
O215        H238   0.966       .  S
C216        O233   1.271       .  A
C216        O225   1.263       .  A
C216        C472   1.479       .  S
O217       Ni236   1.909       .  S
O217        C223   1.270       .  A
O218       Ni236   1.950       .  S
O218        C220   1.281       .  A
Ni219       O222   1.917       .  S
Ni219       O224   1.960       .  S
C220        O230   1.287       .  A
C220        C974   1.525       .  S
O221       Ni237   1.939       .  S
O221        C227   1.277       .  A
O222        C227   1.269       .  A
C223        C591   1.501       .  S
O224        C226   1.284       .  A
O225       Ni236   1.897       .  S
C226        O232   1.288       .  A
C227        C741   1.495       .  S
H228        O229   0.966       .  S
O229       Ni237   1.912       .  S
O229       Ni231   1.943       .  S
O229       Ni236   1.919       .  S
O230       Ni231   2.001       .  S
Ni231       O235   1.954       .  S
Ni231       O233   1.943       .  S
O232       Ni237   2.002       .  S
C234        O235   1.280       .  A
C234        C900   1.505       .  S
O239       Ni245   1.920       .  S
O239        C260   1.272       .  A
O240       Ni263   1.978       .  S
O240        C249   1.287       .  A
O241       Ni245   1.920       .  S
O241       Ni263   1.939   1_554  S
O241       Ni257   1.911       .  S
O241        H264   0.966   1_554  S
C242        O259   1.277       .  A
C242        O251   1.268       .  A
C242       C1264   1.511       .  S
O243       Ni262   1.917   1_556  S
O243        C249   1.272       .  A
O244       Ni262   1.950   1_556  S
O244        C246   1.283       .  A
Ni245       O248   1.912   1_554  S
Ni245       O250   1.958       .  S
C246        O256   1.284   1_556  A
O247       Ni263   1.960       .  S
O247        C253   1.283       .  A
O248        C253   1.268       .  A
C249       C1037   1.512       .  S
O250        C252   1.282       .  A
O251       Ni262   1.913       .  S
C252        O258   1.282       .  A
C252        C712   1.523       .  S
C253        C590   1.506       .  S
H254        O255   0.966       .  S
O255       Ni263   1.932   1_554  S
O255       Ni257   1.949       .  S
O255       Ni262   1.915       .  S
O256       Ni257   1.993       .  S
Ni257       O261   1.961       .  S
Ni257       O259   1.966       .  S
O258       Ni263   1.984   1_554  S
C260        O261   1.282       .  A
C260        C447   1.505       .  S
O265       Ni271   1.894       .  S
O265        C286   1.267       .  A
O266       Ni289   1.961       .  S
O266        C275   1.275       .  A
O267       Ni271   1.910       .  S
O267       Ni289   1.919   1_454  S
O267       Ni283   1.931   1_455  S
O267        H290   0.966       .  S
C268        O285   1.294       .  A
C268        O277   1.275       .  A
C268       C1116   1.511       .  S
O269       Ni288   1.887       .  S
O269        C275   1.261       .  A
O270       Ni288   1.933   1_554  S
O270        C272   1.272       .  A
Ni271       O274   1.922   1_554  S
Ni271       O276   1.945   1_554  S
C272        O282   1.273       .  A
C272        C755   1.512       .  S
O273       Ni289   1.966   1_455  S
O273        C279   1.293       .  A
O274        C279   1.277       .  A
O276        C278   1.275       .  A
O277       Ni288   1.926   1_554  S
C278        O284   1.272       .  A
C278        C660   1.512       .  S
C279       C1036   1.499       .  S
H280        O281   0.966       .  S
O281       Ni289   1.942       .  S
O281       Ni283   1.929   1_556  S
O281       Ni288   1.917       .  S
O282       Ni283   1.965       .  S
Ni283       O287   1.957   1_655  S
Ni283       O285   1.978       .  S
O284       Ni289   1.959   1_455  S
C286        O287   1.273       .  A
C286       C1191   1.493       .  S
O291       Ni297   1.894       .  S
O291        C312   1.264       .  A
O292       Ni315   1.950   1_565  S
O292        C301   1.275       .  A
O293       Ni297   1.917       .  S
O293       Ni315   1.926       .  S
O293       Ni309   1.944   1_545  S
O293        H316   0.966       .  S
C294        O311   1.296       .  A
C294        O303   1.278       .  A
O295       Ni314   1.900       .  S
O295        C301   1.267       .  A
O296       Ni314   1.953       .  S
O296        C298   1.276       .  A
Ni297       O300   1.927       .  S
Ni297       O302   1.938       .  S
C298        O308   1.276       .  A
C298       C1022   1.532       .  S
O299       Ni315   1.970       .  S
O299        C305   1.292       .  A
O300        C305   1.274       .  A
C301        C473   1.485       .  S
O302        C304   1.274       .  A
O303       Ni314   1.926       .  S
C304        O310   1.277       .  A
C304        C646   1.517       .  S
C305        C867   1.504       .  S
H306        O307   0.966       .  S
O307       Ni315   1.929   1_565  S
O307       Ni309   1.924       .  S
O307       Ni314   1.908       .  S
O308       Ni309   1.977       .  S
Ni309       O313   1.956   1_565  S
Ni309       O311   1.988       .  S
O310       Ni315   1.972       .  S
C312        O313   1.275       .  A
C312       C1250   1.491       .  S
O317       Ni323   1.925       .  S
O317        C338   1.273       .  A
O318       Ni341   1.962       .  S
O318        C327   1.282       .  A
O319       Ni323   1.917       .  S
O319       Ni341   1.939       .  S
O319       Ni335   1.915       .  S
O319        H342   0.966       .  S
C320        O337   1.280       .  A
C320        O329   1.268       .  A
C320        C901   1.510       .  S
O321       Ni340   1.926       .  S
O321        C327   1.272       .  A
O322       Ni340   1.949       .  S
O322        C324   1.283       .  A
Ni323       O326   1.921       .  S
Ni323       O328   1.955       .  S
C324        O334   1.289       .  A
C324        C432   1.521       .  S
O325       Ni341   1.945       .  S
O325        C331   1.275       .  A
O326        C331   1.271       .  A
C327        C681   1.505       .  S
O328        C330   1.282       .  A
O329       Ni340   1.907       .  S
C330        O336   1.281       .  A
C330       C1009   1.520       .  S
C331       C1130   1.496       .  S
H332        O333   0.966       .  S
O333       Ni341   1.920       .  S
O333       Ni335   1.955       .  S
O333       Ni340   1.917       .  S
O334       Ni335   1.997       .  S
Ni335       O339   1.992       .  S
Ni335       O337   1.970       .  S
O336       Ni341   1.981       .  S
C338        O339   1.293       .  A
O343       Ni349   1.913       .  S
O343        C364   1.269       .  A
O344       Ni367   1.961       .  S
O344        C353   1.280       .  A
O345       Ni349   1.926       .  S
O345       Ni367   1.929   1_655  S
O345       Ni361   1.917       .  S
O345        H368   0.966       .  S
C346        O363   1.285       .  A
C346        O355   1.276       .  A
C346        C754   1.509       .  S
O347       Ni366   1.908   1_455  S
O347        C353   1.270       .  A
O348       Ni366   1.957       .  S
O348        C350   1.278       .  A
Ni349       O352   1.925   1_655  S
Ni349       O354   1.950   1_655  S
C350        O360   1.284       .  A
O351       Ni367   1.961       .  S
O351        C357   1.293       .  A
O352        C357   1.275       .  A
C353       C1265   1.500       .  S
O354        C356   1.276       .  A
O355       Ni366   1.936       .  S
C356        O362   1.278       .  A
C356        C948   1.529       .  S
C357        C500   1.498       .  S
H358        O359   0.966       .  S
O359       Ni367   1.924       .  S
O359       Ni361   1.925   1_455  S
O359       Ni366   1.921   1_455  S
O360       Ni361   1.998       .  S
Ni361       O365   1.943       .  S
Ni361       O363   1.952       .  S
O362       Ni367   1.978       .  S
C364        O365   1.274       .  A
C364       C1131   1.489       .  S
O369       Ni375   1.902   1_565  S
O369        C390   1.266       .  A
O370       Ni393   1.974       .  S
O370        C379   1.288       .  A
O371       Ni375   1.925   1_556  S
O371       Ni393   1.948       .  S
O371       Ni387   1.927   1_546  S
O371        H394   0.966   1_545  S
C372        O389   1.280       .  A
C372        O381   1.272       .  A
C372        C768   1.501       .  S
O373       Ni392   1.925   1_556  S
O373        C379   1.274       .  A
O374       Ni392   1.952   1_566  S
O374        C376   1.281       .  A
Ni375       O378   1.903   1_554  S
Ni375       O380   1.938       .  S
C376        O386   1.287       .  A
O377       Ni393   1.975       .  S
O377        C383   1.281       .  A
O378        C383   1.265       .  A
C379        C929   1.514       .  S
O380        C382   1.278       .  A
O381       Ni392   1.920   1_565  S
C382        O388   1.288       .  A
C382       C1237   1.517       .  S
C383        C647   1.516       .  S
H384        O385   0.966       .  S
O385       Ni393   1.916   1_554  S
O385       Ni387   1.936   1_545  S
O385       Ni392   1.917       .  S
O386       Ni387   2.002   1_556  S
Ni387       O391   1.965       .  S
Ni387       O389   1.956       .  S
O388       Ni393   2.000   1_554  S
C390        O391   1.285       .  A
C390        C446   1.495       .  S
C395       C2092   1.473       .  S
C395        N396   1.353       .  A
C395        N400   1.354       .  A
N396        C397   1.353       .  A
C397       C2112   1.471       .  S
C397        N398   1.353       .  A
N398        C399   1.353       .  A
C399       C2102   1.474       .  S
C399        N400   1.352       .  A
O401       Ni409   1.899       .  S
O401        C411   1.279       .  A
O402       Ni409   1.946       .  S
O402        C412   1.288       .  A
O403       Ni409   1.960       .  S
O403        C413   1.290       .  A
O404       Ni409   1.925       .  S
O404        C414   1.283       .  A
O405       Ni410   1.876       .  S
O405        C414   1.274       .  A
O406       Ni410   1.915       .  S
O406        C413   1.284       .  A
O407       Ni410   1.943       .  S
O407        C412   1.287       .  A
O408       Ni410   1.906       .  S
O408        C411   1.281       .  A
Ni409      Ni410   2.383       .  S
C411       C2105   1.467       .  S
C414       C2082   1.469       .  S
C415       C2065   1.476   1_545  S
C415        N416   1.356   1_545  A
C415        N420   1.354       .  A
N416        C417   1.355   1_565  A
C417       C2052   1.479   1_545  S
C417        N418   1.355       .  A
N418        C419   1.355       .  A
C419       C2072   1.474       .  S
C419        N420   1.351       .  A
O421       Ni429   1.899       .  S
O421        C431   1.278       .  A
O422       Ni429   1.938       .  S
O422        C432   1.283       .  A
O423       Ni429   1.936       .  S
O423        C433   1.286       .  A
O424       Ni429   1.909       .  S
O424        C434   1.281       .  A
O425       Ni430   1.895       .  S
O425        C434   1.277       .  A
O426       Ni430   1.940       .  S
O426        C433   1.285       .  A
O427       Ni430   1.960       .  S
O427        C432   1.291       .  A
O428       Ni430   1.915       .  S
O428        C431   1.282       .  A
Ni429      Ni430   2.383       .  S
C431       C2055   1.476       .  S
C433        C517   1.510       .  S
C434       C2042   1.468       .  S
O435       Ni443   1.895       .  S
O435        C445   1.278       .  A
O436       Ni443   1.923       .  S
O436        C446   1.287       .  A
O437       Ni443   1.943       .  S
O437        C447   1.284       .  A
O438       Ni443   1.912       .  S
O438        C448   1.281       .  A
O439       Ni444   1.896       .  S
O439        C448   1.278       .  A
O440       Ni444   1.926       .  S
O440        C447   1.287       .  A
O441       Ni444   1.935       .  S
O441        C446   1.281       .  A
O442       Ni444   1.904       .  S
O442        C445   1.280       .  A
Ni443      Ni444   2.385       .  S
C445       C2115   1.467       .  S
C448       C2062   1.472       .  S
C449       C2022   1.473       .  S
C449        N450   1.355       .  A
C449        N454   1.350       .  A
N450        C451   1.354       .  A
C451       C2032   1.470   1_545  S
C451        N452   1.354   1_545  A
N452        C453   1.351   1_565  A
C453       C2015   1.471   1_545  S
C453        N454   1.352       .  A
C455       C2085   1.475       .  S
C455        N456   1.354       .  A
C455        N460   1.353       .  A
N456        C457   1.350       .  A
C457       C2002   1.476       .  S
C457        N458   1.351       .  A
N458        C459   1.354       .  A
C459       C2045   1.472       .  S
C459        N460   1.357       .  A
O461       Ni469   1.890       .  S
O461        C471   1.275       .  A
O462       Ni469   1.902       .  S
O462        C472   1.280       .  A
O463       Ni469   1.908       .  S
O463        C473   1.282       .  A
O464       Ni469   1.896       .  S
O464        C474   1.279       .  A
O465       Ni470   1.908       .  S
O465        C474   1.280       .  A
O466       Ni470   1.934       .  S
O466        C473   1.283       .  A
O467       Ni470   1.935       .  S
O467        C472   1.284       .  A
O468       Ni470   1.907       .  S
O468        C471   1.282       .  A
Ni469      Ni470   2.390       .  S
C471       C2012   1.465       .  S
C474       C2005   1.470       .  S
O475       Ni483   1.920       .  S
O475        C485   1.283       .  A
O476       Ni483   1.961       .  S
O476        C486   1.292       .  A
O477       Ni483   1.924       .  S
O477        C487   1.287       .  A
O478       Ni483   1.882       .  S
O478        C488   1.274       .  A
O479       Ni484   1.919       .  S
O479        C488   1.284       .  A
O480       Ni484   1.970       .  S
O480        C487   1.292       .  A
O481       Ni484   1.955       .  S
O481        C486   1.290       .  A
O482       Ni484   1.889       .  S
O482        C485   1.277       .  A
Ni483      Ni484   2.380       .  S
C485       C2075   1.469       .  S
C488       C2025   1.467       .  S
O489       Ni497   1.899       .  S
O489        C499   1.278       .  A
O490       Ni497   1.932       .  S
O490        C500   1.284       .  A
O491       Ni497   1.935       .  S
O491        C501   1.290       .  A
O492       Ni497   1.898       .  S
O492        C502   1.279       .  A
O493       Ni498   1.902       .  S
O493        C502   1.279       .  A
O494       Ni498   1.942       .  S
O494        C501   1.283       .  A
O495       Ni498   1.933       .  S
O495        C500   1.287       .  A
O496       Ni498   1.901       .  S
O496        C499   1.280       .  A
Ni497      Ni498   2.387       .  S
C499       C2035   1.466       .  S
C501        C807   1.508       .  S
C502       C2095   1.466       .  S
O503       Ni509   1.910       .  S
O503        C524   1.271       .  A
O504       Ni527   1.963       .  S
O504        C513   1.280       .  A
O505       Ni509   1.924   1_565  S
O505       Ni527   1.929       .  S
O505       Ni521   1.931   1_565  S
O505        H528   0.966       .  S
C506        O523   1.295       .  A
C506        O515   1.278       .  A
C506       C1278   1.528       .  S
O507       Ni526   1.912       .  S
O507        C513   1.269       .  A
O508       Ni526   1.959       .  S
O508        C510   1.278       .  A
Ni509       O512   1.926   1_545  S
Ni509       O514   1.961       .  S
C510        O520   1.282       .  A
O511       Ni527   1.971       .  S
O511        C517   1.294       .  A
O512        C517   1.276       .  A
C513        C769   1.506       .  S
O514        C516   1.280       .  A
O515       Ni526   1.939   1_545  S
C516        O522   1.278       .  A
C516        C852   1.535       .  S
H518        O519   0.966       .  S
O519       Ni527   1.934   1_545  S
O519       Ni521   1.935       .  S
O519       Ni526   1.928   1_545  S
O520       Ni521   1.993   1_565  S
Ni521       O525   1.967       .  S
Ni521       O523   1.980       .  S
O522       Ni527   1.981   1_545  S
C524        O525   1.280       .  A
C524       C1145   1.510       .  S
O529       Ni535   1.910       .  S
O529        C550   1.269       .  A
O530       Ni553   1.973   1_554  S
O530        C539   1.277       .  A
O531       Ni535   1.921       .  S
O531       Ni553   1.929       .  S
O531       Ni547   1.946       .  S
O531        H554   0.966       .  S
C532        O549   1.300       .  A
C532        O541   1.278       .  A
C532       C1279   1.547       .  S
O533       Ni552   1.904       .  S
O533        C539   1.268       .  A
O534       Ni552   1.944       .  S
O534        C536   1.276       .  A
Ni535       O538   1.942       .  S
Ni535       O540   1.951       .  S
C536        O546   1.276       .  A
C536       C1117   1.515       .  S
O537       Ni553   2.005       .  S
O537        C543   1.301       .  A
O538        C543   1.279       .  A
C539        C727   1.510       .  S
O540        C542   1.276       .  A
O541       Ni552   1.945       .  S
C542        O548   1.269       .  A
C542        C928   1.514       .  S
C543        C604   1.544       .  S
H544        O545   0.966       .  S
O545       Ni553   1.962   1_554  S
O545       Ni547   1.938   1_554  S
O545       Ni552   1.921       .  S
O546       Ni547   1.965   1_554  S
Ni547       O551   1.962       .  S
Ni547       O549   2.011   1_556  S
O548       Ni553   1.953       .  S
C550        O551   1.280       .  A
C555       C1972   1.474       .  S
C555        N556   1.357       .  A
C555        N560   1.349       .  A
N556        C557   1.357       .  A
C557       C1995   1.474       .  S
C557        N558   1.353       .  A
N558        C559   1.354       .  A
C559       C1982   1.472       .  S
C559        N560   1.351       .  A
C561       C1952   1.467       .  S
C561        N562   1.355       .  A
C561        N566   1.356       .  A
N562        C563   1.355   1_554  A
C563       C1942   1.466       .  S
C563        N564   1.353       .  A
N564        C565   1.351       .  A
C565       C1962   1.473       .  S
C565        N566   1.352   1_556  A
C567       C1935   1.476       .  S
C567        N568   1.350       .  A
C567        N572   1.352       .  A
N568        C569   1.353       .  A
C569       C1912   1.473       .  S
C569        N570   1.354       .  A
N570        C571   1.356       .  A
C571       C1922   1.470       .  S
C571        N572   1.354       .  A
C573       C1895   1.478       .  S
C573        N574   1.361   1_556  A
C573        N578   1.354       .  A
N574        C575   1.362       .  A
C575       C1905   1.477       .  S
C575        N576   1.349       .  A
N576        C577   1.347   1_554  A
C577       C1882   1.469       .  S
C577        N578   1.349       .  A
O579       Ni587   1.902       .  S
O579        C589   1.277       .  A
O580       Ni587   1.934       .  S
O580        C590   1.283       .  A
O581       Ni587   1.921       .  S
O581        C591   1.287       .  A
O582       Ni587   1.893       .  S
O582        C592   1.277       .  A
O583       Ni588   1.898       .  S
O583        C592   1.280       .  A
O584       Ni588   1.933       .  S
O584        C591   1.282       .  A
O585       Ni588   1.946       .  S
O585        C590   1.291       .  A
O586       Ni588   1.907       .  S
O586        C589   1.280       .  A
Ni587      Ni588   2.390       .  S
C589       C1925   1.459       .  S
C592       C1885   1.460       .  S
O593       Ni601   1.918       .  S
O593        C603   1.282       .  A
O594       Ni601   1.976       .  S
O594        C604   1.293       .  A
O595       Ni601   1.967       .  S
O595        C605   1.292       .  A
O596       Ni601   1.897       .  S
O596        C606   1.278       .  A
O597       Ni602   1.905       .  S
O597        C606   1.279       .  A
O598       Ni602   1.957       .  S
O598        C605   1.291       .  A
O599       Ni602   1.944       .  S
O599        C604   1.290       .  A
O600       Ni602   1.892       .  S
O600        C603   1.277       .  A
Ni601      Ni602   2.379       .  S
C603       C1915   1.468       .  S
C605        C784   1.545       .  S
C606       C1945   1.464       .  S
O607       Ni615   1.888       .  S
O607        C617   1.277       .  A
O608       Ni615   1.924       .  S
O608        C618   1.279       .  A
O609       Ni615   1.917       .  S
O609        C619   1.287       .  A
O610       Ni615   1.887       .  S
O610        C620   1.278       .  A
O611       Ni616   1.907       .  S
O611        C620   1.280       .  A
O612       Ni616   1.941       .  S
O612        C619   1.284       .  A
O613       Ni616   1.938       .  S
O613        C618   1.290       .  A
O614       Ni616   1.906       .  S
O614        C617   1.280       .  A
Ni615      Ni616   2.388       .  S
C617       C1985   1.465       .  S
C620       C1932   1.467       .  S
O621       Ni629   1.885       .  S
O621        C631   1.275       .  A
O622       Ni629   1.928       .  S
O622        C632   1.286       .  A
O623       Ni629   1.952       .  S
O623        C633   1.290       .  A
O624       Ni629   1.911       .  S
O624        C634   1.283       .  A
O625       Ni630   1.896       .  S
O625        C634   1.276       .  A
O626       Ni630   1.946       .  S
O626        C633   1.285       .  A
O627       Ni630   1.964       .  S
O627        C632   1.291       .  A
O628       Ni630   1.927       .  S
O628        C631   1.284       .  A
Ni629      Ni630   2.382       .  S
C631       C1902   1.467       .  S
C634       C1955   1.460       .  S
O635       Ni643   1.904       .  S
O635        C645   1.279       .  A
O636       Ni643   1.940       .  S
O636        C646   1.287       .  A
O637       Ni643   1.932       .  S
O637        C647   1.287       .  A
O638       Ni643   1.895       .  S
O638        C648   1.277       .  A
O639       Ni644   1.913       .  S
O639        C648   1.282       .  A
O640       Ni644   1.949       .  S
O640        C647   1.287       .  A
O641       Ni644   1.951       .  S
O641        C646   1.286       .  A
O642       Ni644   1.905       .  S
O642        C645   1.281       .  A
Ni643      Ni644   2.384       .  S
C645       C1965   1.472       .  S
C648       C1975   1.469       .  S
O649       Ni657   1.892       .  S
O649        C659   1.277       .  A
O650       Ni657   1.932       .  S
O650        C660   1.285       .  A
O651       Ni657   1.947       .  S
O651        C661   1.290       .  A
O652       Ni657   1.912       .  S
O652        C662   1.281       .  A
O653       Ni658   1.902       .  S
O653        C662   1.279       .  A
O654       Ni658   1.937       .  S
O654        C661   1.284       .  A
O655       Ni658   1.950       .  S
O655        C660   1.287       .  A
O656       Ni658   1.920       .  S
O656        C659   1.283       .  A
Ni657      Ni658   2.386       .  S
C659       C1992   1.470       .  S
C661       C1154   1.517       .  S
C662       C1892   1.470       .  S
C663       C1872   1.464       .  S
C663        N664   1.354       .  A
C663        N668   1.348       .  A
N664        C665   1.355       .  A
C665       C1865   1.465       .  S
C665        N666   1.353       .  A
N666        C667   1.351       .  A
C667       C1852   1.463       .  S
C667        N668   1.353       .  A
O669       Ni677   1.889       .  S
O669        C679   1.277       .  A
O670       Ni677   1.919       .  S
O670        C680   1.281       .  A
O671       Ni677   1.913       .  S
O671        C681   1.281       .  A
O672       Ni677   1.887       .  S
O672        C682   1.278       .  A
O673       Ni678   1.912       .  S
O673        C682   1.280       .  A
O674       Ni678   1.953       .  S
O674        C681   1.289       .  A
O675       Ni678   1.954       .  S
O675        C680   1.290       .  A
O676       Ni678   1.909       .  S
O676        C679   1.280       .  A
Ni677      Ni678   2.387       .  S
C679       C1855   1.460       .  S
C682       C1842   1.465       .  S
C683       C1812   1.471       .  S
C683        N684   1.353       .  A
C683        N688   1.350   1_554  A
N684        C685   1.353   1_554  A
C685       C1822   1.477   1_556  S
C685        N686   1.357       .  A
N686        C687   1.355       .  A
C687       C1832   1.476       .  S
C687        N688   1.350       .  A
C689       C1792   1.459       .  S
C689        N690   1.351       .  A
C689        N694   1.354   1_554  A
N690        C691   1.353       .  A
C691       C1785   1.464       .  S
C691        N692   1.355   1_554  A
N692        C693   1.350       .  A
C693       C1802   1.470       .  S
C693        N694   1.348       .  A
C695       C1845   1.472       .  S
C695        N696   1.353       .  A
C695        N700   1.352       .  A
N696        C697   1.357       .  A
C697       C1772   1.470       .  S
C697        N698   1.353       .  A
N698        C699   1.354       .  A
C699       C1762   1.470       .  S
C699        N700   1.349       .  A
O701       Ni709   1.890       .  S
O701        C711   1.276       .  A
O702       Ni709   1.947       .  S
O702        C712   1.290       .  A
O703       Ni709   1.953       .  S
O703        C713   1.290       .  A
O704       Ni709   1.898       .  S
O704        C714   1.280       .  A
O705       Ni710   1.883       .  S
O705        C714   1.275       .  A
O706       Ni710   1.912       .  S
O706        C713   1.281       .  A
O707       Ni710   1.947       .  S
O707        C712   1.286       .  A
O708       Ni710   1.912       .  S
O708        C711   1.282       .  A
Ni709      Ni710   2.387       .  S
C711       C1765   1.456       .  S
C714       C1782   1.458       .  S
O715       Ni723   1.883       .  S
O715        C725   1.277       .  A
O716       Ni723   1.898       .  S
O716        C726   1.282       .  A
O717       Ni723   1.909       .  S
O717        C727   1.280       .  A
O718       Ni723   1.888       .  S
O718        C728   1.276       .  A
O719       Ni724   1.920       .  S
O719        C728   1.284       .  A
O720       Ni724   1.971       .  S
O720        C727   1.294       .  A
O721       Ni724   1.949       .  S
O721        C726   1.286       .  A
O722       Ni724   1.905       .  S
O722        C725   1.280       .  A
Ni723      Ni724   2.387       .  S
C725       C1815   1.463       .  S
C728       C1775   1.469       .  S
O729       Ni737   1.913       .  S
O729        C739   1.282       .  A
O730       Ni737   1.942       .  S
O730        C740   1.285       .  A
O731       Ni737   1.936       .  S
O731        C741   1.287       .  A
O732       Ni737   1.901       .  S
O732        C742   1.279       .  A
O733       Ni738   1.900       .  S
O733        C742   1.279       .  A
O734       Ni738   1.926       .  S
O734        C741   1.282       .  A
O735       Ni738   1.910       .  S
O735        C740   1.282       .  A
O736       Ni738   1.885       .  S
O736        C739   1.276       .  A
Ni737      Ni738   2.387       .  S
C739       C1805   1.462       .  S
C740        C785   1.491       .  S
C742       C1835   1.466       .  S
O743       Ni751   1.892       .  S
O743        C753   1.277       .  A
O744       Ni751   1.929       .  S
O744        C754   1.284       .  A
O745       Ni751   1.937       .  S
O745        C755   1.287       .  A
O746       Ni751   1.900       .  S
O746        C756   1.279       .  A
O747       Ni752   1.895       .  S
O747        C756   1.278       .  A
O748       Ni752   1.940       .  S
O748        C755   1.284       .  A
O749       Ni752   1.942       .  S
O749        C754   1.286       .  A
O750       Ni752   1.912       .  S
O750        C753   1.282       .  A
Ni751      Ni752   2.384       .  S
C753       C1825   1.468       .  S
C756       C1862   1.464       .  S
O757       Ni765   1.881       .  S
O757        C767   1.275       .  A
O758       Ni765   1.906       .  S
O758        C768   1.280       .  A
O759       Ni765   1.930       .  S
O759        C769   1.285       .  A
O760       Ni765   1.898       .  S
O760        C770   1.280       .  A
O761       Ni766   1.902       .  S
O761        C770   1.277       .  A
O762       Ni766   1.950       .  S
O762        C769   1.287       .  A
O763       Ni766   1.950       .  S
O763        C768   1.289       .  A
O764       Ni766   1.916       .  S
O764        C767   1.282       .  A
Ni765      Ni766   2.387       .  S
C767       C1875   1.461       .  S
C770       C1795   1.457       .  S
O771       Ni777   1.900       .  S
O771        C792   1.268       .  A
O772       Ni795   1.948       .  S
O772        C781   1.278       .  A
O773       Ni777   1.916       .  S
O773       Ni795   1.935       .  S
O773       Ni789   1.930       .  S
O773        H796   0.966       .  S
C774        O791   1.284       .  A
C774        O783   1.271       .  A
C774       C1102   1.492       .  S
O775       Ni794   1.909       .  S
O775        C781   1.270       .  A
O776       Ni794   1.948       .  S
O776        C778   1.275       .  A
Ni777       O780   1.911       .  S
Ni777       O782   1.955       .  S
C778        O788   1.278       .  A
C778       C1008   1.524       .  S
O779       Ni795   1.960       .  S
O779        C785   1.288       .  A
O780        C785   1.273       .  A
O782        C784   1.278       .  A
O783       Ni794   1.921       .  S
C784        O790   1.284       .  A
H786        O787   0.967       .  S
O787       Ni795   1.921       .  S
O787       Ni789   1.929       .  S
O787       Ni794   1.925       .  S
O788       Ni789   1.984       .  S
Ni789       O793   1.965       .  S
Ni789       O791   1.945       .  S
O790       Ni795   1.998       .  S
C792        O793   1.275       .  A
C792        C887   1.503       .  S
O797       Ni803   1.896   1_545  S
O797        C818   1.266       .  A
O798       Ni821   1.978       .  S
O798        C807   1.280       .  A
O799       Ni803   1.921   1_445  S
O799       Ni821   1.930   1_545  S
O799       Ni815   1.943   1_455  S
O799        H822   0.966       .  S
C800        O817   1.297       .  A
C800        O809   1.274       .  A
C800       C1144   1.510       .  S
O801       Ni820   1.888       .  S
O801        C807   1.266       .  A
O802       Ni820   1.950   1_545  S
O802        C804   1.276       .  A
Ni803       O806   1.934   1_655  S
Ni803       O808   1.953       .  S
C804        O814   1.275       .  A
C804       C1217   1.529       .  S
O805       Ni821   1.993       .  S
O805        C811   1.299       .  A
O806        C811   1.277       .  A
O808        C810   1.276       .  A
O809       Ni820   1.920   1_645  S
C810        O816   1.282       .  A
C811       C1023   1.531       .  S
H812        O813   0.966   1_655  S
O813       Ni821   1.944       .  S
O813       Ni815   1.925   1_465  S
O813       Ni820   1.915       .  S
O814       Ni815   1.975   1_455  S
Ni815       O819   1.954       .  S
Ni815       O817   1.982       .  S
O816       Ni821   1.991   1_655  S
C818        O819   1.274       .  A
C818        C915   1.493       .  S
C823       C1742   1.474   1_565  S
C823        N824   1.352   1_565  A
C823        N828   1.354       .  A
N824        C825   1.350   1_545  A
C825       C1735   1.477   1_565  S
C825        N826   1.354       .  A
N826        C827   1.357       .  A
C827       C1755   1.477       .  S
C827        N828   1.353       .  A
C829       C1702   1.471       .  S
C829        N830   1.356       .  A
C829        N834   1.349   1_545  A
N830        C831   1.357       .  A
C831       C1722   1.468       .  S
C831        N832   1.357   1_545  A
N832        C833   1.352       .  A
C833       C1715   1.470       .  S
C833        N834   1.348       .  A
C835       C1675   1.464       .  S
C835        N836   1.351       .  A
C835        N840   1.348       .  A
N836        C837   1.352       .  A
C837       C1692   1.474       .  S
C837        N838   1.359       .  A
N838        C839   1.356       .  A
C839       C1682   1.476       .  S
C839        N840   1.352       .  A
O841       Ni849   1.912       .  S
O841        C851   1.281       .  A
O842       Ni849   1.953       .  S
O842        C852   1.290       .  A
O843       Ni849   1.930       .  S
O843        C853   1.288       .  A
O844       Ni849   1.891       .  S
O844        C854   1.276       .  A
O845       Ni850   1.909       .  S
O845        C854   1.283       .  A
O846       Ni850   1.960       .  S
O846        C853   1.289       .  A
O847       Ni850   1.960       .  S
O847        C852   1.292       .  A
O848       Ni850   1.898       .  S
O848        C851   1.279       .  A
Ni849      Ni850   2.383       .  S
C851       C1685   1.471       .  S
C854       C1705   1.466       .  S
O855       Ni863   1.908       .  S
O855        C865   1.282       .  A
O856       Ni863   1.949       .  S
O856        C866   1.286       .  A
O857       Ni863   1.928       .  S
O857        C867   1.284       .  A
O858       Ni863   1.888       .  S
O858        C868   1.277       .  A
O859       Ni864   1.905       .  S
O859        C868   1.280       .  A
O860       Ni864   1.943       .  S
O860        C867   1.284       .  A
O861       Ni864   1.942       .  S
O861        C866   1.289       .  A
O862       Ni864   1.896       .  S
O862        C865   1.277       .  A
Ni863      Ni864   2.383       .  S
C865       C1732   1.469       .  S
C868       C1672   1.463       .  S
C869       C1662   1.473       .  S
C869        N870   1.354       .  A
C869        N874   1.358       .  A
N870        C871   1.352       .  A
C871       C1652   1.470       .  S
C871        N872   1.347       .  A
N872        C873   1.351       .  A
C873       C1642   1.471       .  S
C873        N874   1.355       .  A
O875       Ni883   1.904       .  S
O875        C885   1.280       .  A
O876       Ni883   1.937       .  S
O876        C886   1.288       .  A
O877       Ni883   1.945       .  S
O877        C887   1.286       .  A
O878       Ni883   1.903       .  S
O878        C888   1.280       .  A
O879       Ni884   1.905       .  S
O879        C888   1.280       .  A
O880       Ni884   1.921       .  S
O880        C887   1.285       .  A
O881       Ni884   1.918       .  S
O881        C886   1.281       .  A
O882       Ni884   1.890       .  S
O882        C885   1.278       .  A
Ni883      Ni884   2.390       .  S
C885       C1645   1.461       .  S
C888       C1695   1.466       .  S
O889       Ni897   1.894       .  S
O889        C899   1.276       .  A
O890       Ni897   1.922       .  S
O890        C900   1.286       .  A
O891       Ni897   1.956       .  S
O891        C901   1.288       .  A
O892       Ni897   1.921       .  S
O892        C902   1.284       .  A
O893       Ni898   1.887       .  S
O893        C902   1.276       .  A
O894       Ni898   1.926       .  S
O894        C901   1.286       .  A
O895       Ni898   1.943       .  S
O895        C900   1.285       .  A
O896       Ni898   1.905       .  S
O896        C899   1.282       .  A
Ni897      Ni898   2.385       .  S
C899       C1712   1.463       .  S
C902       C1752   1.471       .  S
O903       Ni911   1.907       .  S
O903        C913   1.280       .  A
O904       Ni911   1.932       .  S
O904        C914   1.286       .  A
O905       Ni911   1.934       .  S
O905        C915   1.284       .  A
O906       Ni911   1.902       .  S
O906        C916   1.279       .  A
O907       Ni912   1.899       .  S
O907        C916   1.279       .  A
O908       Ni912   1.915       .  S
O908        C915   1.284       .  A
O909       Ni912   1.922       .  S
O909        C914   1.279       .  A
O910       Ni912   1.899       .  S
O910        C913   1.280       .  A
Ni911      Ni912   2.390       .  S
C913       C1725   1.467       .  S
C914       C1160   1.489       .  S
C916       C1665   1.467       .  S
O917       Ni925   1.892       .  S
O917        C927   1.278       .  A
O918       Ni925   1.932       .  S
O918        C928   1.285       .  A
O919       Ni925   1.929       .  S
O919        C929   1.289       .  A
O920       Ni925   1.892       .  S
O920        C930   1.277       .  A
O921       Ni926   1.904       .  S
O921        C930   1.281       .  A
O922       Ni926   1.945       .  S
O922        C929   1.286       .  A
O923       Ni926   1.953       .  S
O923        C928   1.290       .  A
O924       Ni926   1.903       .  S
O924        C927   1.280       .  A
Ni925      Ni926   2.387       .  S
C927       C1745   1.463       .  S
C930       C1655   1.464       .  S
C931       C1632   1.467       .  S
C931        N932   1.354       .  A
C931        N936   1.351   1_455  A
N932        C933   1.353       .  A
C933       C1612   1.475       .  S
C933        N934   1.357   1_455  A
N934        C935   1.354       .  A
C935       C1625   1.466       .  S
C935        N936   1.353       .  A
O937       Ni945   1.909       .  S
O937        C947   1.282       .  A
O938       Ni945   1.948       .  S
O938        C948   1.290       .  A
O939       Ni945   1.942       .  S
O939        C949   1.286       .  A
O940       Ni945   1.891       .  S
O940        C950   1.277       .  A
O941       Ni946   1.921       .  S
O941        C950   1.282       .  A
O942       Ni946   1.962       .  S
O942        C949   1.294       .  A
O943       Ni946   1.951       .  S
O943        C948   1.288       .  A
O944       Ni946   1.893       .  S
O944        C947   1.277       .  A
Ni945      Ni946   2.385       .  S
C947       C1602   1.466       .  S
C950       C1615   1.466       .  S
C951       C1572   1.476       .  S
C951        N952   1.357       .  A
C951        N956   1.359       .  A
N952        C953   1.352       .  A
C953       C1595   1.474       .  S
C953        N954   1.347       .  A
N954        C955   1.347       .  A
C955       C1582   1.474       .  S
C955        N956   1.356       .  A
C957       C1565   1.472       .  S
C957        N958   1.348       .  A
C957        N962   1.354       .  A
N958        C959   1.350       .  A
C959       C1605   1.471       .  S
C959        N960   1.357       .  A
N960        C961   1.359       .  A
C961       C1552   1.476       .  S
C961        N962   1.355       .  A
O963       Ni971   1.909       .  S
O963        C973   1.281       .  A
O964       Ni971   1.956       .  S
O964        C974   1.291       .  A
O965       Ni971   1.897       .  S
O965        C975   1.277       .  A
O966       Ni971   1.948       .  S
O966        C976   1.287       .  A
O967       Ni972   1.948       .  S
O967        C976   1.291       .  A
O968       Ni972   1.915       .  S
O968        C975   1.282       .  A
O969       Ni972   1.943       .  S
O969        C974   1.286       .  A
O970       Ni972   1.903       .  S
O970        C973   1.278       .  A
Ni971      Ni972   2.384       .  S
C973       C1555   1.471       .  S
C975       C1575   1.470       .  S
C977       C1542   1.469   1_655  S
C977        N978   1.348   1_655  A
C977        N982   1.359       .  A
N978        C979   1.343       .  A
C979       C1532   1.466       .  S
C979        N980   1.349   1_455  A
N980        C981   1.358       .  A
C981       C1522   1.474       .  S
C981        N982   1.362       .  A
O983       Ni991   1.890       .  S
O983        C993   1.275       .  A
O984       Ni991   1.935       .  S
O984        C994   1.284       .  A
O985       Ni991   1.967       .  S
O985        C995   1.292       .  A
O986       Ni991   1.929       .  S
O986        C996   1.286       .  A
O987       Ni992   1.882       .  S
O987        C996   1.274       .  A
O988       Ni992   1.928       .  S
O988        C995   1.285       .  A
O989       Ni992   1.944       .  S
O989        C994   1.288       .  A
O990       Ni992   1.908       .  S
O990        C993   1.282       .  A
Ni991      Ni992   2.382       .  S
C993       C1535   1.462       .  S
C995       C1150   1.522       .  S
C996       C1562   1.471       .  S
O997      Ni1005   1.913       .  S
O997       C1007   1.281       .  A
O998      Ni1005   1.948       .  S
O998       C1008   1.288       .  A
O999      Ni1005   1.943       .  S
O999       C1009   1.286       .  A
O1000     Ni1005   1.904       .  S
O1000      C1010   1.280       .  A
O1001     Ni1006   1.903       .  S
O1001      C1010   1.279       .  A
O1002     Ni1006   1.947       .  S
O1002      C1009   1.289       .  A
O1003     Ni1006   1.944       .  S
O1003      C1008   1.289       .  A
O1004     Ni1006   1.895       .  S
O1004      C1007   1.279       .  A
Ni1005    Ni1006   2.387       .  S
C1007      C1622   1.469       .  S
C1010      C1525   1.469       .  S
O1011     Ni1019   1.909       .  S
O1011      C1021   1.280       .  A
O1012     Ni1019   1.951       .  S
O1012      C1022   1.287       .  A
O1013     Ni1019   1.949       .  S
O1013      C1023   1.291       .  A
O1014     Ni1019   1.907       .  S
O1014      C1024   1.281       .  A
O1015     Ni1020   1.898       .  S
O1015      C1024   1.278       .  A
O1016     Ni1020   1.960       .  S
O1016      C1023   1.290       .  A
O1017     Ni1020   1.950       .  S
O1017      C1022   1.292       .  A
O1018     Ni1020   1.893       .  S
O1018      C1021   1.278       .  A
Ni1019    Ni1020   2.385       .  S
C1021      C1635   1.463       .  S
C1024      C1592   1.468       .  S
O1025     Ni1033   1.913       .  S
O1025      C1035   1.283       .  A
O1026     Ni1033   1.941       .  S
O1026      C1036   1.285       .  A
O1027     Ni1033   1.919       .  S
O1027      C1037   1.286       .  A
O1028     Ni1033   1.884       .  S
O1028      C1038   1.274       .  A
O1029     Ni1034   1.921       .  S
O1029      C1038   1.285       .  A
O1030     Ni1034   1.962       .  S
O1030      C1037   1.288       .  A
O1031     Ni1034   1.922       .  S
O1031      C1036   1.286       .  A
O1032     Ni1034   1.886       .  S
O1032      C1035   1.275       .  A
Ni1033    Ni1034   2.381       .  S
C1035      C1585   1.466       .  S
C1038      C1545   1.469       .  S
C1039      C1502   1.475       .  S
C1039      N1040   1.354       .  A
C1039      N1044   1.358       .  A
N1040      C1041   1.351       .  A
C1041      C1492   1.469       .  S
C1041      N1042   1.349       .  A
N1042      C1043   1.349       .  A
C1043      C1515   1.474       .  S
C1043      N1044   1.357       .  A
O1045     Ni1053   1.906       .  S
O1045      C1055   1.280       .  A
O1046     Ni1053   1.948       .  S
O1046      C1056   1.290       .  A
O1047     Ni1053   1.942       .  S
O1047      C1057   1.284       .  A
O1048     Ni1053   1.901       .  S
O1048      C1058   1.278       .  A
O1049     Ni1054   1.907       .  S
O1049      C1058   1.281       .  A
O1050     Ni1054   1.916       .  S
O1050      C1057   1.286       .  A
O1051     Ni1054   1.917       .  S
O1051      C1056   1.278       .  A
O1052     Ni1054   1.894       .  S
O1052      C1055   1.278       .  A
Ni1053    Ni1054   2.388       .  S
C1055      C1482   1.467       .  S
C1058      C1505   1.471       .  S
C1059      C1485   1.470       .  S
C1059      N1060   1.358       .  A
C1059      N1064   1.354       .  A
N1060      C1061   1.353       .  A
C1061      C1462   1.472       .  S
C1061      N1062   1.350       .  A
N1062      C1063   1.349       .  A
C1063      C1472   1.445       .  S
C1063      N1064   1.347       .  A
C1065      C1445   1.473   1_455  S
C1065      N1066   1.355       .  A
C1065      N1070   1.353   1_455  A
N1066      C1067   1.356       .  A
C1067      C1452   1.477       .  S
C1067      N1068   1.355       .  A
N1068      C1069   1.353   1_455  A
C1069      C1432   1.452       .  S
C1069      N1070   1.346       .  A
C1071      C1412   1.470       .  S
C1071      N1072   1.352       .  A
C1071      N1076   1.350       .  A
N1072      C1073   1.349       .  A
C1073      C1405   1.469   1_455  S
C1073      N1074   1.357       .  A
N1074      C1075   1.355       .  A
C1075      C1422   1.477       .  S
C1075      N1076   1.353       .  A
O1077     Ni1085   1.901       .  S
O1077      C1087   1.281       .  A
O1078     Ni1085   1.949       .  S
O1078      C1088   1.290       .  A
O1079     Ni1085   1.937       .  S
O1079      C1089   1.284       .  A
O1080     Ni1085   1.891       .  S
O1080      C1090   1.277       .  A
O1081     Ni1086   1.911       .  S
O1081      C1090   1.281       .  A
O1082     Ni1086   1.935       .  S
O1082      C1089   1.288       .  A
O1083     Ni1086   1.930       .  S
O1083      C1088   1.284       .  A
O1084     Ni1086   1.898       .  S
O1084      C1087   1.277       .  A
Ni1085    Ni1086   2.386       .  S
C1087      C1425   1.470       .  S
C1090      C1455   1.469       .  S
O1091     Ni1099   1.901       .  S
O1091      C1101   1.280       .  A
O1092     Ni1099   1.935       .  S
O1092      C1102   1.287       .  A
O1093     Ni1099   1.934       .  S
O1093      C1103   1.281       .  A
O1094     Ni1099   1.903       .  S
O1094      C1104   1.280       .  A
O1095     Ni1100   1.897       .  S
O1095      C1104   1.278       .  A
O1096     Ni1100   1.921       .  S
O1096      C1103   1.287       .  A
O1097     Ni1100   1.929       .  S
O1097      C1102   1.282       .  A
O1098     Ni1100   1.908       .  S
O1098      C1101   1.278       .  A
Ni1099    Ni1100   2.390       .  S
C1101      C1402   1.458       .  S
C1103      C1168   1.493       .  S
C1104      C1465   1.465       .  S
O1105     Ni1113   1.889       .  S
O1105      C1115   1.276       .  A
O1106     Ni1113   1.925       .  S
O1106      C1116   1.283       .  A
O1107     Ni1113   1.942       .  S
O1107      C1117   1.288       .  A
O1108     Ni1113   1.909       .  S
O1108      C1118   1.281       .  A
O1109     Ni1114   1.891       .  S
O1109      C1118   1.275       .  A
O1110     Ni1114   1.943       .  S
O1110      C1117   1.286       .  A
O1111     Ni1114   1.956       .  S
O1111      C1116   1.288       .  A
O1112     Ni1114   1.915       .  S
O1112      C1115   1.283       .  A
Ni1113    Ni1114   2.382       .  S
C1115      C1512   1.466       .  S
C1118      C1442   1.460       .  S
O1119     Ni1127   1.923       .  S
O1119      C1129   1.282       .  A
O1120     Ni1127   1.952       .  S
O1120      C1130   1.289       .  A
O1121     Ni1127   1.931       .  S
O1121      C1131   1.284       .  A
O1122     Ni1127   1.901       .  S
O1122      C1132   1.276       .  A
O1123     Ni1128   1.888       .  S
O1123      C1132   1.277       .  A
O1124     Ni1128   1.918       .  S
O1124      C1131   1.283       .  A
O1125     Ni1128   1.912       .  S
O1125      C1130   1.280       .  A
O1126     Ni1128   1.881       .  S
O1126      C1129   1.275       .  A
Ni1127    Ni1128   2.392       .  S
C1129      C1435   1.453       .  S
C1132      C1475   1.439       .  S
O1133     Ni1141   1.897       .  S
O1133      C1143   1.279       .  A
O1134     Ni1141   1.931       .  S
O1134      C1144   1.288       .  A
O1135     Ni1141   1.941       .  S
O1135      C1145   1.284       .  A
O1136     Ni1141   1.902       .  S
O1136      C1146   1.279       .  A
O1137     Ni1142   1.888       .  S
O1137      C1146   1.277       .  A
O1138     Ni1142   1.936       .  S
O1138      C1145   1.290       .  A
O1139     Ni1142   1.944       .  S
O1139      C1144   1.286       .  A
O1140     Ni1142   1.897       .  S
O1140      C1143   1.279       .  A
Ni1141    Ni1142   2.388       .  S
C1143      C1495   1.464       .  S
C1146      C1415   1.458       .  S
O1147     Ni1153   1.888       .  S
O1147      C1168   1.261       .  A
O1148     Ni1171   1.951       .  S
O1148      C1157   1.278       .  A
O1149     Ni1153   1.910       .  S
O1149     Ni1171   1.928   1_655  S
O1149     Ni1165   1.927   1_655  S
O1149      H1172   0.966       .  S
C1150      O1167   1.280       .  A
C1150      O1159   1.273       .  A
O1151     Ni1170   1.917       .  S
O1151      C1157   1.271       .  A
O1152     Ni1170   1.945       .  S
O1152      C1154   1.280       .  A
Ni1153     O1156   1.916       .  S
Ni1153     O1158   1.922       .  S
C1154      O1164   1.286       .  A
O1155     Ni1171   1.967   1_655  S
O1155      C1161   1.289       .  A
O1156      C1161   1.273       .  A
C1157      C1251   1.493       .  S
O1158      C1160   1.270       .  A
O1159     Ni1170   1.926       .  S
C1160      O1166   1.269       .  A
H1162      O1163   0.966       .  S
O1163     Ni1171   1.941       .  S
O1163     Ni1165   1.940       .  S
O1163     Ni1170   1.909       .  S
O1164     Ni1165   1.986       .  S
Ni1165     O1169   1.973   1_455  S
Ni1165     O1167   1.970       .  S
O1166     Ni1171   1.945   1_655  S
C1168      O1169   1.278       .  A
C1173      C1382   1.474       .  S
C1173      N1174   1.354       .  A
C1173      N1178   1.355       .  A
N1174      C1175   1.352       .  A
C1175      C1395   1.475   1_556  S
C1175      N1176   1.350   1_556  A
N1176      C1177   1.350   1_554  A
C1177      C1372   1.474   1_556  S
C1177      N1178   1.355       .  A
O1179     Ni1187   1.901       .  S
O1179      C1189   1.281       .  A
O1180     Ni1187   1.936       .  S
O1180      C1190   1.283       .  A
O1181     Ni1187   1.941       .  S
O1181      C1191   1.285       .  A
O1182     Ni1187   1.909       .  S
O1182      C1192   1.281       .  A
O1183     Ni1188   1.891       .  S
O1183      C1192   1.277       .  A
O1184     Ni1188   1.908       .  S
O1184      C1191   1.282       .  A
O1185     Ni1188   1.907       .  S
O1185      C1190   1.281       .  A
O1186     Ni1188   1.891       .  S
O1186      C1189   1.276       .  A
Ni1187    Ni1188   2.390       .  S
C1189      C1375   1.464       .  S
C1192      C1365   1.465       .  S
C1193      C1352   1.475   1_655  S
C1193      N1194   1.351       .  A
C1193      N1198   1.361       .  A
N1194      C1195   1.351       .  A
C1195      C1332   1.470   1_665  S
C1195      N1196   1.351   1_565  A
N1196      C1197   1.351   1_545  A
C1197      C1345   1.478   1_565  S
C1197      N1198   1.358       .  A
C1199      C1315   1.471       .  S
C1199      N1200   1.360       .  A
C1199      N1204   1.353       .  A
N1200      C1201   1.358       .  A
C1201      C1325   1.474       .  S
C1201      N1202   1.353       .  A
N1202      C1203   1.350       .  A
C1203      C1362   1.467       .  S
C1203      N1204   1.347       .  A
O1205     Ni1213   1.897       .  S
O1205      C1215   1.279       .  A
O1206     Ni1213   1.937       .  S
O1206      C1216   1.290       .  A
O1207     Ni1213   1.937       .  S
O1207      C1217   1.286       .  A
O1208     Ni1213   1.893       .  S
O1208      C1218   1.277       .  A
O1209     Ni1214   1.910       .  S
O1209      C1218   1.282       .  A
O1210     Ni1214   1.962       .  S
O1210      C1217   1.291       .  A
O1211     Ni1214   1.947       .  S
O1211      C1216   1.285       .  A
O1212     Ni1214   1.899       .  S
O1212      C1215   1.278       .  A
Ni1213    Ni1214   2.387       .  S
C1215      C1335   1.456       .  S
C1218      C1312   1.465       .  S
C1219      C1292   1.462       .  S
C1219      N1220   1.352       .  A
C1219      N1224   1.351       .  A
N1220      C1221   1.350   1_564  A
C1221      C1305   1.465       .  S
C1221      N1222   1.355       .  A
N1222      C1223   1.357   1_556  A
C1223      C1282   1.472       .  S
C1223      N1224   1.355   1_545  A
O1225     Ni1233   1.909       .  S
O1225      C1235   1.281       .  A
O1226     Ni1233   1.941       .  S
O1226      C1236   1.287       .  A
O1227     Ni1233   1.937       .  S
O1227      C1237   1.284       .  A
O1228     Ni1233   1.905       .  S
O1228      C1238   1.280       .  A
O1229     Ni1234   1.911       .  S
O1229      C1238   1.280       .  A
O1230     Ni1234   1.947       .  S
O1230      C1237   1.291       .  A
O1231     Ni1234   1.940       .  S
O1231      C1236   1.287       .  A
O1232     Ni1234   1.897       .  S
O1232      C1235   1.278       .  A
Ni1233    Ni1234   2.388       .  S
C1235      C1285   1.467       .  S
C1238      C1322   1.468       .  S
O1239     Ni1247   1.907       .  S
O1239      C1249   1.280       .  A
O1240     Ni1247   1.916       .  S
O1240      C1250   1.283       .  A
O1241     Ni1247   1.898       .  S
O1241      C1251   1.278       .  A
O1242     Ni1247   1.886       .  S
O1242      C1252   1.276       .  A
O1243     Ni1248   1.922       .  S
O1243      C1252   1.283       .  A
O1244     Ni1248   1.955       .  S
O1244      C1251   1.289       .  A
O1245     Ni1248   1.941       .  S
O1245      C1250   1.285       .  A
O1246     Ni1248   1.900       .  S
O1246      C1249   1.279       .  A
Ni1247    Ni1248   2.386       .  S
C1249      C1385   1.467       .  S
C1252      C1302   1.472       .  S
O1253     Ni1261   1.888       .  S
O1253      C1263   1.276       .  A
O1254     Ni1261   1.920       .  S
O1254      C1264   1.282       .  A
O1255     Ni1261   1.916       .  S
O1255      C1265   1.285       .  A
O1256     Ni1261   1.895       .  S
O1256      C1266   1.279       .  A
O1257     Ni1262   1.900       .  S
O1257      C1266   1.277       .  A
O1258     Ni1262   1.935       .  S
O1258      C1265   1.284       .  A
O1259     Ni1262   1.967       .  S
O1259      C1264   1.292       .  A
O1260     Ni1262   1.926       .  S
O1260      C1263   1.285       .  A
Ni1261    Ni1262   2.390       .  S
C1263      C1355   1.469       .  S
C1266      C1295   1.452       .  S
O1267     Ni1275   1.885       .  S
O1267      C1277   1.276       .  A
O1268     Ni1275   1.942       .  S
O1268      C1278   1.290       .  A
O1269     Ni1275   1.980       .  S
O1269      C1279   1.293       .  A
O1270     Ni1275   1.920       .  S
O1270      C1280   1.282       .  A
O1271     Ni1276   1.895       .  S
O1271      C1280   1.278       .  A
O1272     Ni1276   1.953       .  S
O1272      C1279   1.292       .  A
O1273     Ni1276   1.955       .  S
O1273      C1278   1.289       .  A
O1274     Ni1276   1.905       .  S
O1274      C1277   1.280       .  A
Ni1275    Ni1276   2.379       .  S
C1277      C1392   1.461       .  S
C1280      C1342   1.472       .  S
C1281      C1282   1.405       .  A
C1281      C1286   1.390       .  A
C1281      H1288   1.083   1_554  S
C1282      C1283   1.408       .  A
C1283      C1284   1.389       .  A
C1283      F1290   1.358   1_545  S
C1284      C1285   1.403       .  A
C1284      H1289   1.082       .  S
C1285      C1286   1.405       .  A
C1286      F1287   1.358       .  S
C1291      C1292   1.404       .  A
C1291      C1296   1.386       .  A
C1291      H1298   1.083       .  S
C1292      C1293   1.406       .  A
C1293      C1294   1.391       .  A
C1293      F1300   1.358       .  S
C1294      C1295   1.403       .  A
C1294      H1299   1.084       .  S
C1295      C1296   1.399       .  A
C1296      F1297   1.358       .  S
C1301      C1302   1.408       .  A
C1301      C1306   1.388       .  A
C1301      H1308   1.083       .  S
C1302      C1303   1.405       .  A
C1303      C1304   1.395       .  A
C1303      F1310   1.357       .  S
C1304      C1305   1.405       .  A
C1304      H1309   1.083   1_545  S
C1305      C1306   1.403       .  A
C1306      F1307   1.358       .  S
C1311      C1312   1.406       .  A
C1311      C1316   1.392       .  A
C1311      H1318   1.083       .  S
C1312      C1313   1.401       .  A
C1313      C1314   1.387       .  A
C1313      F1320   1.357       .  S
C1314      C1315   1.408       .  A
C1314      H1319   1.083       .  S
C1315      C1316   1.405       .  A
C1316      F1317   1.357       .  S
C1321      C1322   1.404       .  A
C1321      C1326   1.399       .  A
C1321      H1328   1.083       .  S
C1322      C1323   1.405       .  A
C1323      C1324   1.386       .  A
C1323      F1330   1.358       .  S
C1324      C1325   1.404       .  A
C1324      H1329   1.083       .  S
C1325      C1326   1.409       .  A
C1326      F1327   1.357       .  S
C1331      C1332   1.408       .  A
C1331      C1336   1.388       .  A
C1331      H1338   1.080   1_455  S
C1332      C1333   1.406       .  A
C1333      C1334   1.386       .  A
C1333      F1340   1.356   1_545  S
C1334      C1335   1.401       .  A
C1334      H1339   1.084       .  S
C1335      C1336   1.401       .  A
C1336      F1337   1.358       .  S
C1341      C1342   1.400       .  A
C1341      C1346   1.388       .  A
C1341      H1348   1.083       .  S
C1342      C1343   1.408       .  A
C1343      C1344   1.397       .  A
C1343      F1350   1.354       .  S
C1344      C1345   1.405       .  A
C1344      H1349   1.083   1_545  S
C1345      C1346   1.412       .  A
C1346      F1347   1.356       .  S
C1351      C1352   1.399   1_655  A
C1351      C1356   1.388   1_655  A
C1351      H1358   1.083       .  S
C1352      C1353   1.416       .  A
C1353      C1354   1.394       .  A
C1353      F1360   1.356       .  S
C1354      C1355   1.398       .  A
C1354      H1359   1.083       .  S
C1355      C1356   1.411       .  A
C1356      F1357   1.358       .  S
C1361      C1362   1.403       .  A
C1361      C1366   1.386       .  A
C1361      H1368   1.083       .  S
C1362      C1363   1.407       .  A
C1363      C1364   1.393       .  A
C1363      F1370   1.358       .  S
C1364      C1365   1.404       .  A
C1364      H1369   1.083       .  S
C1365      C1366   1.406       .  A
C1366      F1367   1.358       .  S
C1371      C1372   1.404   1_455  A
C1371      C1376   1.391       .  A
C1371      H1378   1.083   1_554  S
C1372      C1373   1.412       .  A
C1373      C1374   1.385   1_655  A
C1373      F1380   1.353       .  S
C1374      C1375   1.398       .  A
C1374      H1379   1.084       .  S
C1375      C1376   1.410       .  A
C1376      F1377   1.358       .  S
C1381      C1382   1.406       .  A
C1381      C1386   1.387   1_655  A
C1381      H1388   1.081       .  S
C1382      C1383   1.407   1_655  A
C1383      C1384   1.395       .  A
C1383      F1390   1.357       .  S
C1384      C1385   1.405       .  A
C1384      H1389   1.083       .  S
C1385      C1386   1.402       .  A
C1386      F1387   1.356       .  S
C1391      C1392   1.402       .  A
C1391      C1396   1.384       .  A
C1391      H1398   1.082       .  S
C1392      C1393   1.400       .  A
C1393      C1394   1.389       .  A
C1393      F1400   1.355       .  S
C1394      C1395   1.408       .  A
C1394      H1399   1.079       .  S
C1395      C1396   1.408       .  A
C1396      F1397   1.353   1_554  S
C1401      C1402   1.402       .  A
C1401      C1406   1.388       .  A
C1401      H1408   1.084       .  S
C1402      C1403   1.400       .  A
C1403      C1404   1.394       .  A
C1403      F1410   1.358       .  S
C1404      C1405   1.411       .  A
C1404      H1409   1.083       .  S
C1405      C1406   1.399       .  A
C1406      F1407   1.354   1_655  S
C1411      C1412   1.401   1_655  A
C1411      C1416   1.385       .  A
C1411      H1418   1.081       .  S
C1412      C1413   1.413       .  A
C1413      C1414   1.390   1_455  A
C1413      F1420   1.356       .  S
C1414      C1415   1.398       .  A
C1414      H1419   1.083       .  S
C1415      C1416   1.407       .  A
C1416      F1417   1.358       .  S
C1421      C1422   1.404       .  A
C1421      C1426   1.385       .  A
C1421      H1428   1.080       .  S
C1422      C1423   1.409       .  A
C1423      C1424   1.396       .  A
C1423      F1430   1.358       .  S
C1424      C1425   1.407       .  A
C1424      H1429   1.083       .  S
C1425      C1426   1.404       .  A
C1426      F1427   1.355       .  S
C1431      C1432   1.397       .  A
C1431      C1436   1.398       .  A
C1431      H1438   1.081       .  S
C1432      C1433   1.404       .  A
C1433      C1434   1.385       .  A
C1433      F1440   1.359       .  S
C1434      C1435   1.398       .  A
C1434      H1439   1.084       .  S
C1435      C1436   1.406       .  A
C1436      F1437   1.356       .  S
C1441      C1442   1.401       .  A
C1441      C1446   1.391       .  A
C1441      H1448   1.083       .  S
C1442      C1443   1.403       .  A
C1443      C1444   1.387       .  A
C1443      F1450   1.357       .  S
C1444      C1445   1.403       .  A
C1444      H1449   1.078       .  S
C1445      C1446   1.410       .  A
C1446      F1447   1.354   1_655  S
C1451      C1452   1.408       .  A
C1451      C1456   1.393       .  A
C1451      H1458   1.083       .  S
C1452      C1453   1.408       .  A
C1453      C1454   1.388       .  A
C1453      F1460   1.354       .  S
C1454      C1455   1.404       .  A
C1454      H1459   1.083       .  S
C1455      C1456   1.404       .  A
C1456      F1457   1.357       .  S
C1461      C1462   1.407       .  A
C1461      C1466   1.388       .  A
C1461      H1468   1.083       .  S
C1462      C1463   1.406       .  A
C1463      C1464   1.393       .  A
C1463      F1470   1.357       .  S
C1464      C1465   1.405       .  A
C1464      H1469   1.083       .  S
C1465      C1466   1.403       .  A
C1466      F1467   1.358       .  S
C1471      C1472   1.394       .  A
C1471      C1476   1.391       .  A
C1471      H1478   1.081       .  S
C1472      C1473   1.405       .  A
C1473      C1474   1.383       .  A
C1473      F1480   1.358       .  S
C1474      C1475   1.393       .  A
C1474      H1479   1.084       .  S
C1475      C1476   1.405       .  A
C1476      F1477   1.356       .  S
C1481      C1482   1.405       .  A
C1481      C1486   1.387       .  A
C1481      H1488   1.082       .  S
C1482      C1483   1.405       .  A
C1483      C1484   1.390       .  A
C1483      F1490   1.357       .  S
C1484      C1485   1.408       .  A
C1484      H1489   1.083       .  S
C1485      C1486   1.404       .  A
C1486      F1487   1.358       .  S
C1491      C1492   1.404       .  A
C1491      C1496   1.388       .  A
C1491      H1498   1.083       .  S
C1492      C1493   1.408       .  A
C1493      C1494   1.389       .  A
C1493      F1500   1.357       .  S
C1494      C1495   1.403       .  A
C1494      H1499   1.083       .  S
C1495      C1496   1.407       .  A
C1496      F1497   1.357       .  S
C1501      C1502   1.404       .  A
C1501      C1506   1.391       .  A
C1501      H1508   1.083       .  S
C1502      C1503   1.409       .  A
C1503      C1504   1.391       .  A
C1503      F1510   1.357       .  S
C1504      C1505   1.403       .  A
C1504      H1509   1.083       .  S
C1505      C1506   1.408       .  A
C1506      F1507   1.357       .  S
C1511      C1512   1.397       .  A
C1511      C1516   1.389       .  A
C1511      H1518   1.079       .  S
C1512      C1513   1.409       .  A
C1513      C1514   1.390       .  A
C1513      F1520   1.358       .  S
C1514      C1515   1.403       .  A
C1514      H1519   1.083       .  S
C1515      C1516   1.413       .  A
C1516      F1517   1.357       .  S
C1521      C1522   1.405       .  A
C1521      C1526   1.385       .  A
C1521      H1528   1.083       .  S
C1522      C1523   1.408       .  A
C1523      C1524   1.395       .  A
C1523      F1530   1.357       .  S
C1524      C1525   1.406       .  A
C1524      H1529   1.083       .  S
C1525      C1526   1.405       .  A
C1526      F1527   1.358       .  S
C1531      C1532   1.404       .  A
C1531      C1536   1.393       .  A
C1531      H1538   1.083       .  S
C1532      C1533   1.407       .  A
C1533      C1534   1.385       .  A
C1533      F1540   1.356       .  S
C1534      C1535   1.400       .  A
C1534      H1539   1.083       .  S
C1535      C1536   1.409       .  A
C1536      F1537   1.358       .  S
C1541      C1542   1.406       .  A
C1541      C1546   1.386       .  A
C1541      H1548   1.083       .  S
C1542      C1543   1.404       .  A
C1543      C1544   1.394       .  A
C1543      F1550   1.357   1_455  S
C1544      C1545   1.409       .  A
C1544      H1549   1.083       .  S
C1545      C1546   1.402       .  A
C1546      F1547   1.355       .  S
C1551      C1552   1.405       .  A
C1551      C1556   1.394       .  A
C1551      H1558   1.083       .  S
C1552      C1553   1.409       .  A
C1553      C1554   1.391       .  A
C1553      F1560   1.357       .  S
C1554      C1555   1.403       .  A
C1554      H1559   1.083       .  S
C1555      C1556   1.408       .  A
C1556      F1557   1.358       .  S
C1561      C1562   1.400       .  A
C1561      C1566   1.393       .  A
C1561      H1568   1.083       .  S
C1562      C1563   1.411       .  A
C1563      C1564   1.388       .  A
C1563      F1570   1.358       .  S
C1564      C1565   1.401       .  A
C1564      H1569   1.083       .  S
C1565      C1566   1.410       .  A
C1566      F1567   1.357       .  S
C1571      C1572   1.407       .  A
C1571      C1576   1.391       .  A
C1571      H1578   1.083       .  S
C1572      C1573   1.408       .  A
C1573      C1574   1.391       .  A
C1573      F1580   1.357       .  S
C1574      C1575   1.403       .  A
C1574      H1579   1.081       .  S
C1575      C1576   1.403       .  A
C1576      F1577   1.357       .  S
C1581      C1582   1.404       .  A
C1581      C1586   1.393       .  A
C1581      H1588   1.083       .  S
C1582      C1583   1.411       .  A
C1583      C1584   1.386       .  A
C1583      F1590   1.353       .  S
C1584      C1585   1.398       .  A
C1584      H1589   1.083       .  S
C1585      C1586   1.409       .  A
C1586      F1587   1.358       .  S
C1591      C1592   1.407       .  A
C1591      C1596   1.392       .  A
C1591      H1598   1.083       .  S
C1592      C1593   1.402       .  A
C1593      C1594   1.385       .  A
C1593      F1600   1.356       .  S
C1594      C1595   1.408       .  A
C1594      H1599   1.081       .  S
C1595      C1596   1.407       .  A
C1596      F1597   1.357       .  S
C1601      C1602   1.407       .  A
C1601      C1606   1.392       .  A
C1601      H1608   1.083       .  S
C1602      C1603   1.403       .  A
C1603      C1604   1.387       .  A
C1603      F1610   1.358       .  S
C1604      C1605   1.408       .  A
C1604      H1609   1.083       .  S
C1605      C1606   1.404       .  A
C1606      F1607   1.357       .  S
C1611      C1612   1.402       .  A
C1611      C1616   1.386       .  A
C1611      H1618   1.083   1_455  S
C1612      C1613   1.413       .  A
C1613      C1614   1.396       .  A
C1613      F1620   1.357       .  S
C1614      C1615   1.400       .  A
C1614      H1619   1.083       .  S
C1615      C1616   1.407       .  A
C1616      F1617   1.358       .  S
C1621      C1622   1.405       .  A
C1621      C1626   1.387       .  A
C1621      H1628   1.083       .  S
C1622      C1623   1.407       .  A
C1623      C1624   1.394       .  A
C1623      F1630   1.358       .  S
C1624      C1625   1.405       .  A
C1624      H1629   1.083       .  S
C1625      C1626   1.403       .  A
C1626      F1627   1.357       .  S
C1631      C1632   1.403       .  A
C1631      C1636   1.386       .  A
C1631      H1638   1.083       .  S
C1632      C1633   1.408       .  A
C1633      C1634   1.394       .  A
C1633      F1640   1.358   1_455  S
C1634      C1635   1.404       .  A
C1634      H1639   1.083       .  S
C1635      C1636   1.404       .  A
C1636      F1637   1.358       .  S
C1641      C1642   1.406       .  A
C1641      C1646   1.383       .  A
C1641      H1648   1.082       .  S
C1642      C1643   1.408       .  A
C1643      C1644   1.394       .  A
C1643      F1650   1.357       .  S
C1644      C1645   1.405       .  A
C1644      H1649   1.084       .  S
C1645      C1646   1.403       .  A
C1646      F1647   1.358       .  S
C1651      C1652   1.403       .  A
C1651      C1656   1.388       .  A
C1651      H1658   1.083       .  S
C1652      C1653   1.410       .  A
C1653      C1654   1.389       .  A
C1653      F1660   1.357       .  S
C1654      C1655   1.400       .  A
C1654      H1659   1.083       .  S
C1655      C1656   1.408       .  A
C1656      F1657   1.358       .  S
C1661      C1662   1.405       .  A
C1661      C1666   1.391       .  A
C1661      H1668   1.083       .  S
C1662      C1663   1.410       .  A
C1663      C1664   1.389       .  A
C1663      F1670   1.358       .  S
C1664      C1665   1.403       .  A
C1664      H1669   1.083       .  S
C1665      C1666   1.406       .  A
C1666      F1667   1.357       .  S
C1671      C1672   1.404       .  A
C1671      C1676   1.390       .  A
C1671      H1678   1.083       .  S
C1672      C1673   1.407       .  A
C1673      C1674   1.387       .  A
C1673      F1680   1.358       .  S
C1674      C1675   1.403       .  A
C1674      H1679   1.083       .  S
C1675      C1676   1.405       .  A
C1676      F1677   1.357       .  S
C1681      C1682   1.405       .  A
C1681      C1686   1.386       .  A
C1681      H1688   1.083       .  S
C1682      C1683   1.409       .  A
C1683      C1684   1.396       .  A
C1683      F1690   1.357       .  S
C1684      C1685   1.406       .  A
C1684      H1689   1.083       .  S
C1685      C1686   1.406       .  A
C1686      F1687   1.357       .  S
C1691      C1692   1.402       .  A
C1691      C1696   1.388       .  A
C1691      H1698   1.082       .  S
C1692      C1693   1.412       .  A
C1693      C1694   1.392       .  A
C1693      F1700   1.358       .  S
C1694      C1695   1.401       .  A
C1694      H1699   1.083       .  S
C1695      C1696   1.406       .  A
C1696      F1697   1.356       .  S
C1701      C1702   1.403       .  A
C1701      C1706   1.392       .  A
C1701      H1708   1.083       .  S
C1702      C1703   1.409       .  A
C1703      C1704   1.386       .  A
C1703      F1710   1.354   1_545  S
C1704      C1705   1.399       .  A
C1704      H1709   1.083       .  S
C1705      C1706   1.409       .  A
C1706      F1707   1.358       .  S
C1711      C1712   1.400       .  A
C1711      C1716   1.385       .  A
C1711      H1718   1.084       .  S
C1712      C1713   1.407       .  A
C1713      C1714   1.395       .  A
C1713      F1720   1.358       .  S
C1714      C1715   1.406       .  A
C1714      H1719   1.083       .  S
C1715      C1716   1.407       .  A
C1716      F1717   1.356       .  S
C1721      C1722   1.407       .  A
C1721      C1726   1.395       .  A
C1721      H1728   1.083       .  S
C1722      C1723   1.404       .  A
C1723      C1724   1.387       .  A
C1723      F1730   1.358   1_545  S
C1724      C1725   1.404       .  A
C1724      H1729   1.083       .  S
C1725      C1726   1.405       .  A
C1726      F1727   1.358       .  S
C1731      C1732   1.399       .  A
C1731      C1736   1.387       .  A
C1731      H1738   1.083       .  S
C1732      C1733   1.409       .  A
C1733      C1734   1.393   1_545  A
C1733      F1740   1.357       .  S
C1734      C1735   1.404   1_565  A
C1734      H1739   1.082       .  S
C1735      C1736   1.411       .  A
C1736      F1737   1.354       .  S
C1741      C1742   1.407       .  A
C1741      C1746   1.388       .  A
C1741      H1748   1.078       .  S
C1742      C1743   1.405       .  A
C1743      C1744   1.387       .  A
C1743      F1750   1.353   1_545  S
C1744      C1745   1.404       .  A
C1744      H1749   1.083       .  S
C1745      C1746   1.402       .  A
C1746      F1747   1.357       .  S
C1751      C1752   1.401       .  A
C1751      C1756   1.394       .  A
C1751      H1758   1.083       .  S
C1752      C1753   1.410       .  A
C1753      C1754   1.388       .  A
C1753      F1760   1.358       .  S
C1754      C1755   1.402       .  A
C1754      H1759   1.083       .  S
C1755      C1756   1.412       .  A
C1756      F1757   1.355       .  S
C1761      C1762   1.401       .  A
C1761      C1766   1.388       .  A
C1761      H1768   1.079       .  S
C1762      C1763   1.412       .  A
C1763      C1764   1.391       .  A
C1763      F1770   1.357       .  S
C1764      C1765   1.398       .  A
C1764      H1769   1.083       .  S
C1765      C1766   1.402       .  A
C1766      F1767   1.356       .  S
C1771      C1772   1.399       .  A
C1771      C1776   1.388       .  A
C1771      H1778   1.083       .  S
C1772      C1773   1.412       .  A
C1773      C1774   1.394       .  A
C1773      F1780   1.357       .  S
C1774      C1775   1.400       .  A
C1774      H1779   1.082       .  S
C1775      C1776   1.411       .  A
C1776      F1777   1.357       .  S
C1781      C1782   1.401       .  A
C1781      C1786   1.386       .  A
C1781      H1788   1.083       .  S
C1782      C1783   1.407       .  A
C1783      C1784   1.383       .  A
C1783      F1790   1.358       .  S
C1784      C1785   1.402       .  A
C1784      H1789   1.083   1_554  S
C1785      C1786   1.409       .  A
C1786      F1787   1.356       .  S
C1791      C1792   1.406       .  A
C1791      C1796   1.393       .  A
C1791      H1798   1.083       .  S
C1792      C1793   1.398       .  A
C1793      C1794   1.384       .  A
C1793      F1800   1.353   1_554  S
C1794      C1795   1.402       .  A
C1794      H1799   1.084       .  S
C1795      C1796   1.403       .  A
C1796      F1797   1.357       .  S
C1801      C1802   1.405       .  A
C1801      C1806   1.388       .  A
C1801      H1808   1.083       .  S
C1802      C1803   1.408       .  A
C1803      C1804   1.393       .  A
C1803      F1810   1.357       .  S
C1804      C1805   1.403       .  A
C1804      H1809   1.084       .  S
C1805      C1806   1.404       .  A
C1806      F1807   1.358       .  S
C1811      C1812   1.406       .  A
C1811      C1816   1.391       .  A
C1811      H1818   1.083   1_554  S
C1812      C1813   1.408       .  A
C1813      C1814   1.386       .  A
C1813      F1820   1.354       .  S
C1814      C1815   1.401       .  A
C1814      H1819   1.084       .  S
C1815      C1816   1.407       .  A
C1816      F1817   1.357       .  S
C1821      C1822   1.404       .  A
C1821      C1826   1.388       .  A
C1821      H1828   1.083   1_554  S
C1822      C1823   1.412       .  A
C1823      C1824   1.392       .  A
C1823      F1830   1.355       .  S
C1824      C1825   1.400       .  A
C1824      H1829   1.083       .  S
C1825      C1826   1.409       .  A
C1826      F1827   1.358       .  S
C1831      C1832   1.405       .  A
C1831      C1836   1.392       .  A
C1831      H1838   1.083       .  S
C1832      C1833   1.413       .  A
C1833      C1834   1.388       .  A
C1833      F1840   1.357       .  S
C1834      C1835   1.400       .  A
C1834      H1839   1.084       .  S
C1835      C1836   1.408       .  A
C1836      F1837   1.358       .  S
C1841      C1842   1.404       .  A
C1841      C1846   1.381       .  A
C1841      H1848   1.083       .  S
C1842      C1843   1.404       .  A
C1843      C1844   1.398       .  A
C1843      F1850   1.357       .  S
C1844      C1845   1.410       .  A
C1844      H1849   1.083       .  S
C1845      C1846   1.404       .  A
C1846      F1847   1.355       .  S
C1851      C1852   1.408       .  A
C1851      C1856   1.392       .  A
C1851      H1858   1.082       .  S
C1852      C1853   1.400       .  A
C1853      C1854   1.385       .  A
C1853      F1860   1.355       .  S
C1854      C1855   1.404       .  A
C1854      H1859   1.083       .  S
C1855      C1856   1.400       .  A
C1856      F1857   1.357       .  S
C1861      C1862   1.406       .  A
C1861      C1866   1.392       .  A
C1861      H1868   1.083       .  S
C1862      C1863   1.404       .  A
C1863      C1864   1.386       .  A
C1863      F1870   1.358       .  S
C1864      C1865   1.405       .  A
C1864      H1869   1.082       .  S
C1865      C1866   1.403       .  A
C1866      F1867   1.358       .  S
C1871      C1872   1.402       .  A
C1871      C1876   1.387       .  A
C1871      H1878   1.083       .  S
C1872      C1873   1.406       .  A
C1873      C1874   1.393       .  A
C1873      F1880   1.357       .  S
C1874      C1875   1.402       .  A
C1874      H1879   1.082       .  S
C1875      C1876   1.406       .  A
C1876      F1877   1.359       .  S
C1881      C1882   1.408       .  A
C1881      C1886   1.393       .  A
C1881      H1888   1.083       .  S
C1882      C1883   1.406       .  A
C1883      C1884   1.383       .  A
C1883      F1890   1.355   1_556  S
C1884      C1885   1.402       .  A
C1884      H1889   1.083       .  S
C1885      C1886   1.404       .  A
C1886      F1887   1.358       .  S
C1891      C1892   1.406       .  A
C1891      C1896   1.398       .  A
C1891      H1898   1.083       .  S
C1892      C1893   1.403       .  A
C1893      C1894   1.387       .  A
C1893      F1900   1.358       .  S
C1894      C1895   1.408       .  A
C1894      H1899   1.083       .  S
C1895      C1896   1.407       .  A
C1896      F1897   1.357   1_556  S
C1901      C1902   1.408       .  A
C1901      C1906   1.390       .  A
C1901      H1908   1.083       .  S
C1902      C1903   1.398       .  A
C1903      C1904   1.393       .  A
C1903      F1910   1.357       .  S
C1904      C1905   1.413       .  A
C1904      H1909   1.082       .  S
C1905      C1906   1.403       .  A
C1906      F1907   1.357       .  S
C1911      C1912   1.402       .  A
C1911      C1916   1.384       .  A
C1911      H1918   1.082       .  S
C1912      C1913   1.411       .  A
C1913      C1914   1.397       .  A
C1913      F1920   1.357       .  S
C1914      C1915   1.403       .  A
C1914      H1919   1.083       .  S
C1915      C1916   1.408       .  A
C1916      F1917   1.358       .  S
C1921      C1922   1.407       .  A
C1921      C1926   1.387       .  A
C1921      H1928   1.081       .  S
C1922      C1923   1.403       .  A
C1923      C1924   1.394       .  A
C1923      F1930   1.355       .  S
C1924      C1925   1.404       .  A
C1924      H1929   1.084       .  S
C1925      C1926   1.399       .  A
C1926      F1927   1.357       .  S
C1931      C1932   1.404       .  A
C1931      C1936   1.385       .  A
C1931      H1938   1.083       .  S
C1932      C1933   1.406       .  A
C1933      C1934   1.393       .  A
C1933      F1940   1.357       .  S
C1934      C1935   1.409       .  A
C1934      H1939   1.083       .  S
C1935      C1936   1.407       .  A
C1936      F1937   1.355       .  S
C1941      C1942   1.403       .  A
C1941      C1946   1.389       .  A
C1941      H1948   1.084       .  S
C1942      C1943   1.407       .  A
C1943      C1944   1.390       .  A
C1943      F1950   1.357       .  S
C1944      C1945   1.403       .  A
C1944      H1949   1.083       .  S
C1945      C1946   1.406       .  A
C1946      F1947   1.357       .  S
C1951      C1952   1.406       .  A
C1951      C1956   1.394       .  A
C1951      H1958   1.083       .  S
C1952      C1953   1.404       .  A
C1953      C1954   1.388       .  A
C1953      F1960   1.358       .  S
C1954      C1955   1.401       .  A
C1954      H1959   1.084       .  S
C1955      C1956   1.404       .  A
C1956      F1957   1.358       .  S
C1961      C1962   1.406       .  A
C1961      C1966   1.393       .  A
C1961      H1968   1.083   1_556  S
C1962      C1963   1.407       .  A
C1963      C1964   1.390       .  A
C1963      F1970   1.358       .  S
C1964      C1965   1.404       .  A
C1964      H1969   1.082       .  S
C1965      C1966   1.408       .  A
C1966      F1967   1.358       .  S
C1971      C1972   1.401       .  A
C1971      C1976   1.391       .  A
C1971      H1978   1.083       .  S
C1972      C1973   1.414       .  A
C1973      C1974   1.391       .  A
C1973      F1980   1.357       .  S
C1974      C1975   1.399       .  A
C1974      H1979   1.084       .  S
C1975      C1976   1.410       .  A
C1976      F1977   1.358       .  S
C1981      C1982   1.408       .  A
C1981      C1986   1.391       .  A
C1981      H1988   1.080       .  S
C1982      C1983   1.406       .  A
C1983      C1984   1.385       .  A
C1983      F1990   1.356       .  S
C1984      C1985   1.404       .  A
C1984      H1989   1.083       .  S
C1985      C1986   1.405       .  A
C1986      F1987   1.358       .  S
C1991      C1992   1.407       .  A
C1991      C1996   1.390       .  A
C1991      H1998   1.083       .  S
C1992      C1993   1.403       .  A
C1993      C1994   1.395       .  A
C1993      F2000   1.357       .  S
C1994      C1995   1.409       .  A
C1994      H1999   1.082       .  S
C1995      C1996   1.404       .  A
C1996      F1997   1.357       .  S
C2001      C2002   1.406       .  A
C2001      C2006   1.392       .  A
C2001      H2008   1.083       .  S
C2002      C2003   1.409       .  A
C2003      C2004   1.389       .  A
C2003      F2010   1.357       .  S
C2004      C2005   1.403       .  A
C2004      H2009   1.083       .  S
C2005      C2006   1.408       .  A
C2006      F2007   1.358       .  S
C2011      C2012   1.401       .  A
C2011      C2016   1.386       .  A
C2011      H2018   1.083       .  S
C2012      C2013   1.408       .  A
C2013      C2014   1.391       .  A
C2013      F2020   1.358       .  S
C2014      C2015   1.406       .  A
C2014      H2019   1.083       .  S
C2015      C2016   1.405       .  A
C2016      F2017   1.353   1_565  S
C2021      C2022   1.403       .  A
C2021      C2026   1.388       .  A
C2021      H2028   1.083       .  S
C2022      C2023   1.411       .  A
C2023      C2024   1.390       .  A
C2023      F2030   1.355       .  S
C2024      C2025   1.399       .  A
C2024      H2029   1.083       .  S
C2025      C2026   1.410       .  A
C2026      F2027   1.358       .  S
C2031      C2032   1.405       .  A
C2031      C2036   1.385       .  A
C2031      H2038   1.083       .  S
C2032      C2033   1.407       .  A
C2033      C2034   1.393       .  A
C2033      F2040   1.358   1_565  S
C2034      C2035   1.406       .  A
C2034      H2039   1.083       .  S
C2035      C2036   1.405       .  A
C2036      F2037   1.358       .  S
C2041      C2042   1.403       .  A
C2041      C2046   1.390       .  A
C2041      H2048   1.083       .  S
C2042      C2043   1.408       .  A
C2043      C2044   1.388       .  A
C2043      F2050   1.357       .  S
C2044      C2045   1.403       .  A
C2044      H2049   1.082       .  S
C2045      C2046   1.409       .  A
C2046      F2047   1.357       .  S
C2051      C2052   1.405       .  A
C2051      C2056   1.391       .  A
C2051      H2058   1.083   1_565  S
C2052      C2053   1.409       .  A
C2053      C2054   1.395       .  A
C2053      F2060   1.355       .  S
C2054      C2055   1.404       .  A
C2054      H2059   1.082       .  S
C2055      C2056   1.409       .  A
C2056      F2057   1.358       .  S
C2061      C2062   1.405       .  A
C2061      C2066   1.391       .  A
C2061      H2068   1.082       .  S
C2062      C2063   1.405       .  A
C2063      C2064   1.391   1_565  A
C2063      F2070   1.357       .  S
C2064      C2065   1.407   1_545  A
C2064      H2069   1.083       .  S
C2065      C2066   1.407       .  A
C2066      F2067   1.356       .  S
C2071      C2072   1.404       .  A
C2071      C2076   1.387       .  A
C2071      H2078   1.083       .  S
C2072      C2073   1.410       .  A
C2073      C2074   1.396       .  A
C2073      F2080   1.358       .  S
C2074      C2075   1.404       .  A
C2074      H2079   1.083       .  S
C2075      C2076   1.406       .  A
C2076      F2077   1.357       .  S
C2081      C2082   1.403       .  A
C2081      C2086   1.399       .  A
C2081      H2088   1.083       .  S
C2082      C2083   1.410       .  A
C2083      C2084   1.381       .  A
C2083      F2090   1.358       .  S
C2084      C2085   1.400       .  A
C2084      H2089   1.083       .  S
C2085      C2086   1.412       .  A
C2086      F2087   1.356       .  S
C2091      C2092   1.405       .  A
C2091      C2096   1.387       .  A
C2091      H2098   1.082       .  S
C2092      C2093   1.409       .  A
C2093      C2094   1.392       .  A
C2093      F2100   1.357       .  S
C2094      C2095   1.403       .  A
C2094      H2099   1.083       .  S
C2095      C2096   1.406       .  A
C2096      F2097   1.358       .  S
C2101      C2102   1.406       .  A
C2101      C2106   1.390       .  A
C2101      H2108   1.083       .  S
C2102      C2103   1.409       .  A
C2103      C2104   1.390       .  A
C2103      F2110   1.358       .  S
C2104      C2105   1.403       .  A
C2104      H2109   1.084       .  S
C2105      C2106   1.405       .  A
C2106      F2107   1.357       .  S
C2111      C2112   1.406       .  A
C2111      C2116   1.390       .  A
C2111      H2118   1.083       .  S
C2112      C2113   1.407       .  A
C2113      C2114   1.390       .  A
C2113      F2120   1.357       .  S
C2114      C2115   1.405       .  A
C2114      H2119   1.083       .  S
C2115      C2116   1.405       .  A
C2116      F2117   1.358       .  S
C2121      C2122   1.406       .  A
C2121      C2126   1.389       .  A
C2121      H2128   1.082   1_655  S
C2122      C2123   1.407       .  A
C2123      C2124   1.390       .  A
C2123      F2130   1.357   1_565  S
C2124      C2125   1.404       .  A
C2124      H2129   1.083       .  S
C2125      C2126   1.406       .  A
C2126      F2127   1.358       .  S
C2131      C2132   1.403       .  A
C2131      C2136   1.388       .  A
C2131      H2138   1.083   1_565  S
C2132      C2133   1.412       .  A
C2133      C2134   1.391       .  A
C2133      F2140   1.357       .  S
C2134      C2135   1.398       .  A
C2134      H2139   1.083       .  S
C2135      C2136   1.406       .  A
C2136      F2137   1.358       .  S
C2141      C2142   1.403       .  A
C2141      C2146   1.389       .  A
C2141      H2148   1.084       .  S
C2142      C2143   1.404       .  A
C2143      C2144   1.393   1_655  A
C2143      F2150   1.356       .  S
C2144      C2145   1.407       .  A
C2144      H2149   1.083       .  S
C2145      C2146   1.403   1_455  A
C2146      F2147   1.356       .  S
C2151      C2152   1.406       .  A
C2151      C2156   1.391       .  A
C2151      H2158   1.083   1_655  S
C2152      C2153   1.403       .  A
C2153      C2154   1.385       .  A
C2153      F2160   1.358   1_556  S
C2154      C2155   1.403       .  A
C2154      H2159   1.083       .  S
C2155      C2156   1.405       .  A
C2156      F2157   1.358       .  S
C2161      C2162   1.402       .  A
C2161      C2166   1.389       .  A
C2161      H2168   1.083   1_655  S
C2162      C2163   1.406       .  A
C2163      C2164   1.389       .  A
C2163      F2170   1.354       .  S
C2164      C2165   1.400       .  A
C2164      H2169   1.084       .  S
C2165      C2166   1.408       .  A
C2166      F2167   1.358       .  S
C2171      C2172   1.406   1_554  A
C2171      C2176   1.390   1_554  A
C2171      H2178   1.083       .  S
C2172      C2173   1.408       .  A
C2173      C2174   1.384       .  A
C2173      F2180   1.358       .  S
C2174      C2175   1.403       .  A
C2174      H2179   1.083       .  S
C2175      C2176   1.404       .  A
C2176      F2177   1.357   1_556  S
C2181      C2182   1.409       .  A
C2181      C2186   1.393       .  A
C2181      H2188   1.083   1_556  S
C2182      C2183   1.405       .  A
C2183      C2184   1.389       .  A
C2183      F2190   1.357       .  S
C2184      C2185   1.406       .  A
C2184      H2189   1.083       .  S
C2185      C2186   1.404       .  A
C2186      F2187   1.357       .  S
C2191      C2192   1.406       .  A
C2191      C2196   1.394       .  A
C2191      H2198   1.083   1_556  S
C2192      C2193   1.410       .  A
C2193      C2194   1.395       .  A
C2193      F2200   1.356   1_565  S
C2194      C2195   1.403       .  A
C2194      H2199   1.083       .  S
C2195      C2196   1.408       .  A
C2196      F2197   1.358       .  S
C2201      C2202   1.405       .  A
C2201      C2206   1.389       .  A
C2201      H2208   1.083       .  S
C2202      C2203   1.400       .  A
C2203      C2204   1.391       .  A
C2203      F2210   1.357       .  S
C2204      C2205   1.410       .  A
C2204      H2209   1.083   1_565  S
C2205      C2206   1.405       .  A
C2206      F2207   1.357       .  S
C2211      C2212   1.407       .  A
C2211      C2216   1.392       .  A
C2211      H2218   1.083       .  S
C2212      C2213   1.407       .  A
C2213      C2214   1.388       .  A
C2213      F2220   1.358       .  S
C2214      C2215   1.404       .  A
C2214      H2219   1.083       .  S
C2215      C2216   1.405       .  A
C2216      F2217   1.358       .  S
C2221      C2222   1.408       .  A
C2221      C2226   1.392       .  A
C2221      H2228   1.083       .  S
C2222      C2223   1.407       .  A
C2223      C2224   1.394       .  A
C2223      F2230   1.357       .  S
C2224      C2225   1.406       .  A
C2224      H2229   1.083       .  S
C2225      C2226   1.405       .  A
C2226      F2227   1.358       .  S
C2231      C2232   1.405       .  A
C2231      C2236   1.395       .  A
C2231      H2238   1.083       .  S
C2232      C2233   1.407       .  A
C2233      C2234   1.390       .  A
C2233      F2240   1.357       .  S
C2234      C2235   1.403       .  A
C2234      H2239   1.083       .  S
C2235      C2236   1.406       .  A
C2236      F2237   1.357       .  S
