geometry optimzed in LAMMPS
_audit_creation_date              2020-11-30 
_audit_creation_method            'lammps2cif' 
_symmetry_space_group_name_H-M    'P1' 
_symmetry_Int_Tables_number       1 
_symmetry_cell_setting            triclinic 
loop_ 
_symmetry_equiv_pos_as_xyz 
  x,y,z 
_cell_length_a                    49.64267668856808 
_cell_length_b                    49.66419562660169 
_cell_length_c                    49.623707500858394 
_cell_angle_alpha                 90.04774357692979 
_cell_angle_beta                  89.98806365529745 
_cell_angle_gamma                 89.97305494377714 
loop_ 
_atom_site_label 
_atom_site_type_symbol 
_atom_site_fract_x 
_atom_site_fract_y 
_atom_site_fract_z 
_atom_site_charge 
C1          C  0.73444702  0.75735172  0.27247567     0.02620
C2          C  0.75711573  0.77279579  0.26496371     0.02620
C3          C  0.77254189  0.76534369  0.24225603     0.02620
C4          C  0.76518818  0.74261391  0.22682907     0.02620
C5          C  0.74259205  0.72711276  0.23432606     0.02620
C6          C  0.72712658  0.73454827  0.25707192     0.02620
C7          C  0.77195176  0.26698435  0.75845799     0.02620
C8          C  0.76464184  0.24429661  0.77392656     0.02620
C9          C  0.74200315  0.22875690  0.76655346     0.02620
C10         C  0.72653460  0.23600826  0.74383852     0.02620
C11         C  0.73380485  0.25869377  0.72835280     0.02620
C12         C  0.75641618  0.27425622  0.73575811     0.02620
C13         C  0.77266776  0.73475300  0.74241722     0.02620
C14         C  0.75746551  0.72716934  0.76521677     0.02620
C15         C  0.73464559  0.74242508  0.77282556     0.02620
C16         C  0.72707666  0.76524568  0.75762240     0.02620
C17         C  0.74240419  0.77285961  0.73490095     0.02620
C18         C  0.76506209  0.75750471  0.72719918     0.02620
N19         N  0.59979279  0.35175419  0.19884803    -0.26950
N20         N  0.59026917  0.34402917  0.22248922    -0.34810
C21         C  0.60824172  0.32785555  0.23450108     0.01390
C22         C  0.63024859  0.32496803  0.21766185     0.07410
C23         C  0.62428641  0.34060610  0.19526823    -0.05690
H24         H  0.60549683  0.31925802  0.25431984     0.08080
H25         H  0.63663496  0.34338262  0.17752206     0.09280
Cu26       Cu  0.55342390  0.35498398  0.23828934     0.44170
Cu27       Cu  0.57852961  0.37660471  0.17258680     0.41990
Cu28       Cu  0.51112525  0.39437892  0.19687032     0.43880
N29         N  0.51593293  0.36792175  0.25066442    -0.34340
N30         N  0.50011324  0.38263995  0.23523288    -0.28590
C31         C  0.47726643  0.38812862  0.24867716    -0.04690
C32         C  0.47878340  0.37628894  0.27395148     0.07520
C33         C  0.50364411  0.36352317  0.27437022     0.01320
H34         H  0.46093060  0.40010809  0.24067303     0.08970
H35         H  0.51214572  0.35149247  0.29038900     0.08050
N36         N  0.52663334  0.40566544  0.15993836    -0.35790
N37         N  0.55108348  0.39994307  0.15109948    -0.27970
C38         C  0.55436678  0.41127424  0.12667479    -0.03210
C39         C  0.53082792  0.42482951  0.11980605     0.05400
C40         C  0.51371031  0.42051188  0.14145648     0.03500
H41         H  0.57267524  0.40986059  0.11495105     0.08600
H42         H  0.49314565  0.42716986  0.14382008     0.07440
N43         N  0.35086448  0.19939109  0.59763657    -0.26950
N44         N  0.33927463  0.22050774  0.58630280    -0.34810
C45         C  0.32257472  0.23211667  0.60417976     0.01390
C46         C  0.32379764  0.21780664  0.62807281     0.07410
C47         C  0.34192985  0.19712801  0.62314848    -0.05690
H48         H  0.31092535  0.25010122  0.60024576     0.08080
H49         H  0.34802569  0.18140853  0.63692514     0.09280
Cu50       Cu  0.34787424  0.23408078  0.54781241     0.44170
Cu51       Cu  0.37838784  0.17474637  0.57786549     0.41990
Cu52       Cu  0.40141127  0.19974184  0.51312135     0.43880
N53         N  0.36377861  0.24718361  0.51156657    -0.34340
N54         N  0.38435707  0.23533870  0.49949851    -0.28590
C55         C  0.39129215  0.24978067  0.47765471    -0.04690
C56         C  0.37396007  0.27151377  0.47571542     0.07520
C57         C  0.35676670  0.26923940  0.49752102     0.01320
H58         H  0.40758501  0.24471541  0.46407816     0.08970
H59         H  0.34089205  0.28304034  0.50324537     0.08050
N60         N  0.41307139  0.16306838  0.52936555    -0.35790
N61         N  0.40463726  0.15375665  0.55283852    -0.27970
C62         C  0.41501421  0.12899968  0.55668244    -0.03210
C63         C  0.43087754  0.12242570  0.53460945     0.05400
C64         C  0.42901528  0.14456062  0.51769384     0.03500
H65         H  0.41110346  0.11664906  0.57419194     0.08600
H66         H  0.43772598  0.14679301  0.49785088     0.07440
C67         C  0.39671027  0.37767401  0.35688459     0.03470
C68         C  0.39599618  0.35698576  0.37609105    -0.12680
C69         C  0.37611140  0.35656841  0.39621145     0.00970
C70         C  0.35634787  0.37684389  0.39645086    -0.11210
C71         C  0.35685395  0.39788089  0.37750514     0.03460
C72         C  0.37735331  0.39822561  0.35797370    -0.10630
H73         H  0.41058055  0.34079700  0.37490144     0.09050
H74         H  0.34046830  0.37612209  0.41137331     0.06580
H75         H  0.37845621  0.41467873  0.34370099     0.06430
N76         N  0.19862711  0.59936326  0.34967246    -0.26950
N77         N  0.22172486  0.58936292  0.34099547    -0.34810
C78         C  0.23389313  0.60750222  0.32509934     0.01390
C79         C  0.21766162  0.63012532  0.32338035     0.07410
C80         C  0.19548181  0.62424195  0.33938211    -0.05690
H81         H  0.25351874  0.60451161  0.31615305     0.08080
H82         H  0.17826922  0.63703286  0.34325249     0.09280
Cu83       Cu  0.23673847  0.55201855  0.35144740     0.44170
Cu84       Cu  0.17297614  0.57872943  0.37557743     0.41990
Cu85       Cu  0.20014876  0.51541893  0.40123052     0.43880
N86         N  0.24975317  0.51565804  0.36682198    -0.34340
N87         N  0.23688529  0.50269966  0.38615966    -0.28590
C88         C  0.25096402  0.48053803  0.39279331    -0.04690
C89         C  0.27356023  0.47936674  0.37651083     0.07520
C90         C  0.27215465  0.50193331  0.36027632     0.01320
H91         H  0.24495431  0.46611871  0.40797454     0.08970
H92         H  0.28660416  0.50823131  0.34522708     0.08050
N93         N  0.16225178  0.53017990  0.41049609    -0.35790
N94         N  0.15221604  0.55302729  0.40132787    -0.27970
C95         C  0.12699596  0.55598370  0.41084110    -0.03210
C96         C  0.12064946  0.53378782  0.42676875     0.05400
C97         C  0.14373613  0.51796813  0.42592127     0.03500
H98         H  0.11450949  0.57314750  0.40621353     0.08600
H99         H  0.14700493  0.49868407  0.43542474     0.07440
C100        C  0.02228941  0.50720764  0.48429670     0.02620
C101        C  0.00694604  0.48447895  0.47672527     0.02620
C102        C  0.98423490  0.47695866  0.49213684     0.02620
C103        C  0.97667151  0.49232494  0.51487729     0.02620
C104        C  0.99191236  0.51511255  0.52234807     0.02620
C105        C  0.01462315  0.52261973  0.50696471     0.02620
C106        C  0.48408190  0.02168798  0.50966973     0.02620
C107        C  0.47515698  0.00602660  0.48738470     0.02620
C108        C  0.49047189  0.98321317  0.47926167     0.02620
C109        C  0.51353362  0.97549327  0.49417352     0.02620
C110        C  0.52177383  0.99076145  0.51665998     0.02620
C111        C  0.50707295  0.01373472  0.52442406     0.02620
C112        C  0.64367391  0.60373839  0.62321897     0.03470
C113        C  0.64368782  0.62399010  0.60353662    -0.12680
C114        C  0.62336149  0.64359945  0.60304867     0.00970
C115        C  0.60268080  0.64273911  0.62230621    -0.11210
C116        C  0.60245419  0.62267975  0.64223540     0.03460
C117        C  0.62299882  0.60323372  0.64251130    -0.10630
H118        H  0.65922633  0.62420186  0.58819520     0.09050
H119        H  0.58725773  0.65818748  0.62225868     0.06580
H120        H  0.62294603  0.58771577  0.65785325     0.06430
N121        N  0.40135895  0.65037021  0.80167688    -0.26950
N122        N  0.40919169  0.65533294  0.77671215    -0.34810
C123        C  0.39026379  0.67003899  0.76423866     0.01390
C124        C  0.36929973  0.67474114  0.78207604     0.07410
C125        C  0.37712829  0.66191511  0.80570178    -0.05690
H126        H  0.39173432  0.67664212  0.74353049     0.08080
H127        H  0.36639392  0.66131539  0.82464007     0.09280
Cu128      Cu  0.44529656  0.64285498  0.76002637     0.44170
Cu129      Cu  0.42392966  0.62786523  0.82897079     0.41990
Cu130      Cu  0.48756779  0.60312141  0.80201373     0.43880
N131        N  0.48296797  0.62970256  0.74802904    -0.34340
N132        N  0.49871283  0.61514216  0.76372402    -0.28590
C133        C  0.52197462  0.61016961  0.75079329    -0.04690
C134        C  0.52088902  0.62228696  0.72564627     0.07520
C135        C  0.49573006  0.63438136  0.72460008     0.01320
H136        H  0.53822260  0.59827769  0.75907554     0.08970
H137        H  0.48744226  0.64612236  0.70822934     0.08050
N138        N  0.47286070  0.59349008  0.83979010    -0.35790
N139        N  0.45009218  0.60275417  0.85007900    -0.27970
C140        C  0.44689041  0.59238476  0.87496371    -0.03210
C141        C  0.46851994  0.57554348  0.88034901     0.05400
C142        C  0.48458423  0.57690136  0.85762200     0.03500
H143        H  0.42977670  0.59629551  0.88789091     0.08600
H144        H  0.50359459  0.56678801  0.85428121     0.07440
N145        N  0.64802290  0.80023079  0.40026580    -0.26950
N146        N  0.65807272  0.77782091  0.41060156    -0.34810
C147        C  0.67452753  0.76625195  0.39251279     0.01390
C148        C  0.67494926  0.78198533  0.36956160     0.07410
C149        C  0.65773624  0.80329257  0.37507802    -0.05690
H150        H  0.68507821  0.74747444  0.39576373     0.08080
H151        H  0.65304175  0.82004315  0.36197236     0.09280
Cu152      Cu  0.64912922  0.76265710  0.44838125     0.44170
Cu153      Cu  0.62245037  0.82610109  0.42141515     0.41990
Cu154      Cu  0.60492316  0.80182536  0.48842395     0.43880
N155        N  0.63516383  0.74981760  0.48547033    -0.34340
N156        N  0.61797625  0.76408785  0.49993961    -0.28590
C157        C  0.61143038  0.75021812  0.52224441    -0.04690
C158        C  0.62543534  0.72620553  0.52181137     0.07520
C159        C  0.64039557  0.72657222  0.49833980     0.01320
H160        H  0.59777353  0.75722589  0.53773437     0.08970
H161        H  0.65374027  0.71098345  0.49098060     0.08050
N162        N  0.59346621  0.83882581  0.47332543    -0.35790
N163        N  0.59918908  0.84782425  0.44893657    -0.27970
C164        C  0.58778917  0.87227348  0.44585832    -0.03210
C165        C  0.57412992  0.87886993  0.46943372     0.05400
C166        C  0.57852686  0.85716234  0.48638971     0.03500
H167        H  0.58905695  0.88415632  0.42764907     0.08600
H168        H  0.57173438  0.85470286  0.50692347     0.07440
N169        N  0.80117411  0.40113707  0.64963464    -0.26950
N170        N  0.77761762  0.41070021  0.65760886    -0.34810
C171        C  0.76539726  0.39239208  0.67327212     0.01390
C172        C  0.78183141  0.37001298  0.67511275     0.07410
C173        C  0.80438176  0.37621134  0.65983973    -0.05690
H174        H  0.74576435  0.39507843  0.68235794     0.08080
H175        H  0.82203425  0.36380175  0.65679105     0.09280
Cu176      Cu  0.76207692  0.44766575  0.64663482     0.44170
Cu177      Cu  0.82789798  0.42286499  0.62572496     0.41990
Cu178      Cu  0.80227123  0.48807640  0.60319705     0.43880
N179        N  0.74957479  0.48463089  0.63233302    -0.34340
N180        N  0.76454281  0.49978145  0.61643845    -0.28590
C181        C  0.75113178  0.52262456  0.61085655    -0.04690
C182        C  0.72635849  0.52167043  0.62369857     0.07520
C183        C  0.72613846  0.49726567  0.63719235     0.01320
H184        H  0.75876002  0.53858219  0.59814958     0.08970
H185        H  0.71040909  0.48940636  0.65004257     0.08050
N186        N  0.83949774  0.47256264  0.59268654    -0.35790
N187        N  0.84930650  0.44932224  0.60124154    -0.27970
C188        C  0.87417590  0.44597575  0.59088346    -0.03210
C189        C  0.88001567  0.46797760  0.57475308     0.05400
C190        C  0.85760317  0.48440597  0.57647825     0.03500
H191        H  0.88682140  0.42858374  0.59439136     0.08600
H192        H  0.85473692  0.50378284  0.56696298     0.07440
C193        C  0.50771919  0.48348907  0.02165791     0.02620
C194        C  0.48486614  0.47601971  0.00638055     0.02620
C195        C  0.47734620  0.49152140  0.98374688     0.02620
C196        C  0.49269022  0.51428683  0.97627375     0.02620
C197        C  0.51549794  0.52173286  0.99155840     0.02620
C198        C  0.52311044  0.50623099  0.01417022     0.02620
C199        C  0.52256353  0.49239922  0.48499695     0.02620
C200        C  0.50696471  0.51475550  0.47706804     0.02620
C201        C  0.48394678  0.52206642  0.49203773     0.02620
C202        C  0.47632923  0.50681688  0.51479388     0.02620
C203        C  0.49199556  0.48447132  0.52279285     0.02620
C204        C  0.51504086  0.47720203  0.50776945     0.02620
C205        C  0.02300020  0.99295182  0.98499675     0.02620
C206        C  0.01525009  0.97770261  0.00768902     0.02620
C207        C  0.99225529  0.98519498  0.02266321     0.02620
C208        C  0.97676332  0.00762518  0.01462471     0.02620
C209        C  0.98447229  0.02280286  0.99187513     0.02620
C210        C  0.00752266  0.01538745  0.97698015     0.02620
N211        N  0.80198845  0.90203892  0.34879032    -0.26950
N212        N  0.77711526  0.90996708  0.34363015    -0.34810
C213        C  0.76457301  0.89097411  0.32907207     0.01390
C214        C  0.78229296  0.86985130  0.32465064     0.07410
C215        C  0.80592511  0.87768660  0.33749100    -0.05690
H216        H  0.74388744  0.89250158  0.32243876     0.08080
H217        H  0.82478871  0.86686676  0.33833181     0.09280
Cu218      Cu  0.76071763  0.94621360  0.35587760     0.44170
Cu219      Cu  0.82909386  0.92469992  0.37136586     0.41990
Cu220      Cu  0.80258540  0.98899408  0.39540016     0.43880
N221        N  0.74849606  0.98367960  0.36923376    -0.34340
N222        N  0.76404206  0.99960260  0.38376761    -0.28590
C223        C  0.75076580  0.02262284  0.38890866    -0.04690
C224        C  0.72549871  0.02109809  0.37709705     0.07520
C225        C  0.72486262  0.99606990  0.36470985     0.01320
H226        H  0.75893064  0.03916998  0.40050111     0.08970
H227        H  0.70878626  0.98762696  0.35268968     0.08050
N228        N  0.84036064  0.97421847  0.40485280    -0.35790
N229        N  0.85031079  0.95112765  0.39605571    -0.27970
C230        C  0.87514424  0.94778239  0.40645462    -0.03210
C231        C  0.88102091  0.96981329  0.42263343     0.05400
C232        C  0.85843710  0.98607588  0.42108517     0.03500
H233        H  0.88757812  0.93021943  0.40306949     0.08600
H234        H  0.85528864  0.00522455  0.43100821     0.07440
C235        C  0.62357631  0.14424742  0.39646708     0.03470
C236        C  0.64317956  0.12391596  0.39675092    -0.12680
C237        C  0.64358628  0.10403429  0.37663858     0.00970
C238        C  0.62378931  0.10434509  0.35643381    -0.11210
C239        C  0.60395916  0.12451252  0.35600982     0.03460
C240        C  0.60421316  0.14459066  0.37592062    -0.10630
H241        H  0.65818530  0.12363996  0.41260508     0.09050
H242        H  0.62385490  0.08890150  0.34098914     0.06580
H243        H  0.58927572  0.16050348  0.37550250     0.06430
N244        N  0.39800822  0.14383607  0.20202392    -0.26950
N245        N  0.40754675  0.15262618  0.22529018    -0.34810
C246        C  0.38888451  0.16813294  0.23721843     0.01390
C247        C  0.36638292  0.16937719  0.22072618     0.07410
C248        C  0.37298032  0.15365819  0.19853950    -0.05690
H249        H  0.39175331  0.17795785  0.25646294     0.08080
H250        H  0.36100843  0.15028129  0.18066648     0.09280
Cu251      Cu  0.44573621  0.14465066  0.24001339     0.44170
Cu252      Cu  0.41968729  0.11975522  0.17548366     0.41990
Cu253      Cu  0.48754839  0.10459499  0.19781275     0.43880
N254        N  0.48448585  0.13354383  0.25060299    -0.34340
N255        N  0.49991387  0.11865650  0.23487875    -0.28590
C256        C  0.52345922  0.11396971  0.24734333    -0.04690
C257        C  0.52292164  0.12661708  0.27223902     0.07520
C258        C  0.49779827  0.13879798  0.27358861     0.01320
H259        H  0.53931097  0.10149127  0.23912484     0.08970
H260        H  0.48965932  0.15048675  0.29009707     0.08050
N261        N  0.47151362  0.09151071  0.16180118    -0.35790
N262        N  0.44680079  0.09668868  0.15341791    -0.27970
C263        C  0.44323368  0.08510053  0.12913742    -0.03210
C264        C  0.46686465  0.07189693  0.12200474     0.05400
C265        C  0.48432347  0.07663807  0.14323635     0.03500
H266        H  0.42477618  0.08619576  0.11761549     0.08600
H267        H  0.50511161  0.07044229  0.14499886     0.07440
N268        N  0.60198201  0.35002760  0.55077792    -0.26950
N269        N  0.59331727  0.34040327  0.52748670    -0.34810
C270        C  0.57740640  0.35875651  0.51563544     0.01390
C271        C  0.57603317  0.38121149  0.53206161     0.07410
C272        C  0.59190469  0.37498714  0.55420571    -0.05690
H273        H  0.56767929  0.35595660  0.49632501     0.08080
H274        H  0.59533387  0.38733429  0.57184084     0.09280
Cu275      Cu  0.60293995  0.30291031  0.51218675     0.44170
Cu276      Cu  0.62609825  0.32816650  0.57725500     0.41990
Cu277      Cu  0.63996515  0.25940899  0.55550710     0.43880
N278        N  0.61484389  0.26467925  0.50089449    -0.34340
N279        N  0.62816762  0.24837916  0.51711622    -0.28590
C280        C  0.63297185  0.22506893  0.50421436    -0.04690
C281        C  0.62230141  0.22685538  0.47847913     0.07520
C282        C  0.61087427  0.25228374  0.47714570     0.01320
H283        H  0.64384402  0.20826781  0.51281378     0.08970
H284        H  0.60008780  0.26107417  0.46039188     0.08050
N285        N  0.65284973  0.27554100  0.59169860    -0.35790
N286        N  0.64833557  0.30053623  0.59967106    -0.27970
C287        C  0.66035740  0.30433209  0.62370653    -0.03210
C288        C  0.67320278  0.28061152  0.63113285     0.05400
C289        C  0.66773806  0.26281290  0.61032336     0.03500
H290        H  0.66007663  0.32312785  0.63473052     0.08600
H291        H  0.67378674  0.24197140  0.60872188     0.07440
N292        N  0.14954701  0.04947195  0.60241616    -0.26950
N293        N  0.15913236  0.02594683  0.59447140    -0.34810
C294        C  0.14104450  0.01388515  0.57843569     0.01390
C295        C  0.11890635  0.03063987  0.57582629     0.07410
C296        C  0.12495919  0.05299546  0.59151198    -0.05690
H297        H  0.14385874  0.99412691  0.56972840     0.08080
H298        H  0.11261835  0.07070573  0.59448408     0.09280
Cu299      Cu  0.19637542  0.01078547  0.60496130     0.44170
Cu300      Cu  0.17084777  0.07557427  0.62732107     0.41990
Cu301      Cu  0.23805869  0.05188555  0.64636401     0.43880
N302        N  0.23417060  0.99902400  0.61758602    -0.34340
N303        N  0.24963565  0.01410764  0.63305966    -0.28590
C304        C  0.27271871  0.00085218  0.63802028    -0.04690
C305        C  0.27172332  0.97609700  0.62504795     0.07520
C306        C  0.24693098  0.97579762  0.61216949     0.01320
H307        H  0.28885536  0.00860607  0.65043713     0.08970
H308        H  0.23873453  0.96017051  0.59941940     0.08050
N309        N  0.22210366  0.08883484  0.65731265    -0.35790
N310        N  0.19775470  0.09742371  0.65086856    -0.27970
C311        C  0.19406576  0.12209598  0.66149184    -0.03210
C312        C  0.21733242  0.12957682  0.67521305     0.05400
C313        C  0.23456448  0.10778805  0.67200964     0.03500
H314        H  0.17559460  0.13338045  0.65941138     0.08600
H315        H  0.25490180  0.10574972  0.67949851     0.07440
C316        C  0.35425056  0.89352139  0.62575376     0.03470
C317        C  0.35498990  0.87397195  0.60528518    -0.12680
C318        C  0.37421179  0.85330668  0.60583491     0.00970
C319        C  0.39314752  0.85245412  0.62674842    -0.11210
C320        C  0.39297491  0.87204600  0.64713901     0.03460
C321        C  0.37328796  0.89234764  0.64667282    -0.10630
H322        H  0.34055749  0.87475246  0.58891797     0.09050
H323        H  0.40823702  0.83667306  0.62696275     0.06580
H324        H  0.37296035  0.90738850  0.66248567     0.06430
N325        N  0.55208093  0.90314246  0.84768299    -0.26950
N326        N  0.52950944  0.91277026  0.83725886    -0.34810
C327        C  0.51777886  0.92935910  0.85513417     0.01390
C328        C  0.53347667  0.93015021  0.87809646     0.07410
C329        C  0.55501708  0.91317150  0.87275906    -0.05690
H330        H  0.49864260  0.93929137  0.85197622     0.08080
H331        H  0.57158256  0.90845489  0.88610653     0.09280
Cu332      Cu  0.51359428  0.90188299  0.80031633     0.44170
Cu333      Cu  0.57791231  0.87687509  0.82726868     0.41990
Cu334      Cu  0.55398208  0.85836118  0.76062878     0.43880
N335        N  0.50068688  0.88635905  0.76387902    -0.34340
N336        N  0.51590089  0.87035043  0.74907326    -0.28590
C337        C  0.50238710  0.86341918  0.72668316    -0.04690
C338        C  0.47734096  0.87571671  0.72737476     0.07520
C339        C  0.47693048  0.88999928  0.75138467     0.01320
H340        H  0.51015425  0.85001753  0.71134912     0.08970
H341        H  0.46073097  0.90239958  0.75906758     0.08050
N342        N  0.59061446  0.84641225  0.77624123    -0.35790
N343        N  0.59950611  0.85247295  0.80058819    -0.27970
C344        C  0.62370235  0.84064669  0.80413157    -0.03210
C345        C  0.63026699  0.82635810  0.78088897     0.05400
C346        C  0.60875054  0.83082231  0.76366328     0.03500
H347        H  0.63547590  0.84215711  0.82240473     0.08600
H348        H  0.60629949  0.82372927  0.74323047     0.07440
N349        N  0.35226160  0.69972301  0.39998821    -0.26950
N350        N  0.34571578  0.72394902  0.40891898    -0.34810
C351        C  0.32995346  0.73617357  0.39067011     0.01390
C352        C  0.32648151  0.71899883  0.36899554     0.07410
C353        C  0.34096286  0.69603211  0.37558210    -0.05690
H354        H  0.32174858  0.75622495  0.39300282     0.08080
H355        H  0.34264058  0.67772509  0.36387787     0.09280
Cu356      Cu  0.35786291  0.73984301  0.44547582     0.44170
Cu357      Cu  0.37545395  0.67261260  0.42201195     0.41990
Cu358      Cu  0.39552671  0.69644420  0.48863145     0.43880
N359        N  0.37060410  0.75118407  0.48348041    -0.34340
N360        N  0.38385458  0.73485701  0.49975660    -0.28590
C361        C  0.38818013  0.74746092  0.52334289    -0.04690
C362        C  0.37737644  0.77311510  0.52169452     0.07520
C363        C  0.36637097  0.77476000  0.49611337     0.01320
H364        H  0.39857047  0.73864696  0.54034747     0.08970
H365        H  0.35541514  0.79151941  0.48754341     0.08050
N366        N  0.40612410  0.65934762  0.47285852    -0.35790
N367        N  0.39868866  0.65035388  0.44889942    -0.27970
C368        C  0.40907580  0.62556126  0.44524206    -0.03210
C369        C  0.42387211  0.61874290  0.46794559     0.05400
C370        C  0.42155728  0.64071869  0.48493548     0.03500
H371        H  0.40653860  0.61371852  0.42711690     0.08600
H372        H  0.43029938  0.64299304  0.50477826     0.07440
C373        C  0.51464668  0.02296491  0.00797089     0.02620
C374        C  0.49169839  0.01559280  0.02305555     0.02620
C375        C  0.47606684  0.99326998  0.01508640     0.02620
C376        C  0.48346305  0.97818439  0.99213190     0.02620
C377        C  0.50627938  0.98560855  0.97687694     0.02620
C378        C  0.52199534  0.00792170  0.98494557     0.02620
N379        N  0.64925537  0.19823883  0.09935965    -0.26950
N380        N  0.65721653  0.22178803  0.08985976    -0.34810
C381        C  0.67216215  0.23431617  0.10858604     0.01390
C382        C  0.67367635  0.21800591  0.13111537     0.07410
C383        C  0.65883920  0.19526857  0.12457426    -0.05690
H384        H  0.68127772  0.25391296  0.10592089     0.08080
H385        H  0.65591640  0.17750972  0.13682509     0.09280
Cu386      Cu  0.64778879  0.23644131  0.05203344     0.44170
Cu387      Cu  0.62662578  0.17100123  0.07701111     0.41990
Cu388      Cu  0.60229624  0.19716693  0.01268408     0.43880
N389        N  0.63353872  0.24873558  0.01489558    -0.34340
N390        N  0.61578441  0.23477268  0.00083372    -0.28590
C391        C  0.60951717  0.24851131  0.97834230    -0.04690
C392        C  0.62430701  0.27212198  0.97819170     0.07520
C393        C  0.63941593  0.27154615  0.00158446     0.01320
H394        H  0.59568130  0.24155977  0.96299985     0.08970
H395        H  0.65331477  0.28677722  0.00862943     0.08050
N396        N  0.59394485  0.15898544  0.02718182    -0.35790
N397        N  0.60324149  0.14904165  0.05008729    -0.27970
C398        C  0.59392252  0.12375154  0.05308135    -0.03210
C399        C  0.57780346  0.11767670  0.03112130     0.05400
C400        C  0.57829900  0.14048679  0.01518228     0.03500
H401        H  0.59774385  0.11117113  0.07045075     0.08600
H402        H  0.56788765  0.14352449  0.99627411     0.07440
C403        C  0.64460860  0.39663348  0.87757832     0.03470
C404        C  0.64404554  0.37681177  0.89773801    -0.12680
C405        C  0.62519676  0.35568492  0.89686432     0.00970
C406        C  0.60611549  0.35532025  0.87591965    -0.11210
C407        C  0.60579363  0.37553752  0.85618983     0.03460
C408        C  0.62521662  0.39602130  0.85701828    -0.10630
H409        H  0.65807818  0.37823589  0.91436980     0.09050
H410        H  0.59163731  0.33906339  0.87461005     0.06580
H411        H  0.62519135  0.41154355  0.84168634     0.06430
N412        N  0.40127856  0.35163221  0.69970151    -0.26950
N413        N  0.40975654  0.34569122  0.72423253    -0.34810
C414        C  0.39119094  0.33048226  0.73662901     0.01390
C415        C  0.36991264  0.32626561  0.71907246     0.07410
C416        C  0.37697056  0.34020641  0.69586879    -0.05690
H417        H  0.39317496  0.32331488  0.75708757     0.08080
H418        H  0.36554540  0.34156343  0.67736050     0.09280
Cu419      Cu  0.44651798  0.35703027  0.74018105     0.44170
Cu420      Cu  0.42361596  0.37456547  0.67261804     0.41990
Cu421      Cu  0.49119577  0.39166322  0.69628593     0.43880
N422        N  0.48491915  0.36839477  0.75156367    -0.34340
N423        N  0.50157924  0.38109586  0.73522898    -0.28590
C424        C  0.52492208  0.38559891  0.74817917    -0.04690
C425        C  0.52290020  0.37522650  0.77405974     0.07520
C426        C  0.49717845  0.36435573  0.77536071     0.01320
H427        H  0.54198031  0.39589953  0.73939569     0.08970
H428        H  0.48806987  0.35374870  0.79203906     0.08050
N429        N  0.47569968  0.40295641  0.65928141    -0.35790
N430        N  0.45113792  0.39736865  0.65068384    -0.27970
C431        C  0.44748541  0.40910093  0.62650399    -0.03210
C432        C  0.47085811  0.42285198  0.61956193     0.05400
C433        C  0.48832210  0.41817356  0.64086333     0.03500
H434        H  0.42892996  0.40811518  0.61513668     0.08600
H435        H  0.50881358  0.42510233  0.64309845     0.07440
N436        N  0.80350510  0.59896519  0.85039652    -0.26950
N437        N  0.77884465  0.59070120  0.84472399    -0.34810
C438        C  0.76636433  0.60942769  0.82979345     0.01390
C439        C  0.78385011  0.63075939  0.82559139     0.07410
C440        C  0.80731885  0.62331656  0.83902274    -0.05690
H441        H  0.74584552  0.60755818  0.82274683     0.08080
H442        H  0.82599736  0.63440935  0.84019969     0.09280
Cu443      Cu  0.76235597  0.55437732  0.85661594     0.44170
Cu444      Cu  0.83055264  0.57656088  0.87358541     0.41990
Cu445      Cu  0.80385995  0.51161563  0.89581830     0.43880
N446        N  0.74976521  0.51696786  0.86978608    -0.34340
N447        N  0.76525984  0.50102077  0.88431854    -0.28590
C448        C  0.75187860  0.47810676  0.88957315    -0.04690
C449        C  0.72657469  0.47968267  0.87780405     0.07520
C450        C  0.72605349  0.50468164  0.86533589     0.01320
H451        H  0.76000289  0.46160440  0.90123038     0.08970
H452        H  0.71000194  0.51318914  0.85334085     0.08050
N453        N  0.84155131  0.52617915  0.90595019    -0.35790
N454        N  0.85157294  0.54954857  0.89806583    -0.27970
C455        C  0.87631210  0.55246511  0.90888949    -0.03210
C456        C  0.88196534  0.52994576  0.92449379     0.05400
C457        C  0.85945860  0.51371276  0.92190516     0.03500
H458        H  0.88900246  0.56992977  0.90603428     0.08600
H459        H  0.85624857  0.49406547  0.93068892     0.07440
N460        N  0.34996877  0.80168096  0.90016314    -0.26950
N461        N  0.34197460  0.77820629  0.90985588    -0.34810
C462        C  0.32601394  0.76608031  0.89172061     0.01390
C463        C  0.32381876  0.78261778  0.86944587     0.07410
C464        C  0.33942721  0.80495794  0.87538771    -0.05690
H465        H  0.31707455  0.74641640  0.89445583     0.08080
H466        H  0.34252876  0.82249322  0.86285065     0.09280
Cu467      Cu  0.35297330  0.76268001  0.94686241     0.44170
Cu468      Cu  0.37401288  0.82854882  0.92141233     0.41990
Cu469      Cu  0.39355525  0.80501630  0.98787392     0.43880
N470        N  0.36732278  0.75093856  0.98409830    -0.34340
N471        N  0.38248088  0.76667720  0.99921303    -0.28590
C472        C  0.38871634  0.75373432  0.02211499    -0.04690
C473        C  0.37672252  0.72853990  0.02151715     0.07520
C474        C  0.36341724  0.72747285  0.99696731     0.01320
H475        H  0.40134179  0.76210387  0.03775967     0.08970
H476        H  0.35141244  0.71106060  0.98915131     0.08050
N477        N  0.40309726  0.84246765  0.97275657    -0.35790
N478        N  0.39645863  0.85119737  0.94851632    -0.27970
C479        C  0.40686637  0.87597730  0.94501331    -0.03210
C480        C  0.42072037  0.88316794  0.96825216     0.05400
C481        C  0.41774239  0.86133357  0.98533585     0.03500
H482        H  0.40509869  0.88738565  0.92656287     0.08600
H483        H  0.42577176  0.85905430  0.00546027     0.07440
N484        N  0.59891571  0.64894708  0.30081829    -0.26950
N485        N  0.58749906  0.65917530  0.27910607    -0.34810
C486        C  0.60497881  0.67549377  0.26663777     0.01390
C487        C  0.62896458  0.67580721  0.28103909     0.07410
C488        C  0.62417091  0.65862624  0.30271158    -0.05690
H489        H  0.60004973  0.68594174  0.24827012     0.08080
H490        H  0.63794948  0.65330480  0.31870167     0.09280
Cu491      Cu  0.54932695  0.65003982  0.26557974     0.44170
Cu492      Cu  0.57928306  0.62217728  0.32638790     0.41990
Cu493      Cu  0.51374440  0.59954472  0.30094820     0.43880
N494        N  0.51329104  0.63453663  0.25204403    -0.34340
N495        N  0.50057985  0.61483286  0.26453922    -0.28590
C496        C  0.47866588  0.60795038  0.25018543    -0.04690
C497        C  0.47752044  0.62435044  0.22767105     0.07520
C498        C  0.49971283  0.64105039  0.22956949     0.01320
H499        H  0.46439713  0.59255796  0.25599504     0.08970
H500        H  0.50582838  0.65643820  0.21541735     0.08050
N501        N  0.52943457  0.58938153  0.33817206    -0.35790
N502        N  0.55308572  0.59721973  0.34754227    -0.27970
C503        C  0.55636913  0.58716260  0.37252047    -0.03210
C504        C  0.53356983  0.57238286  0.37928384     0.05400
C505        C  0.51704251  0.57434075  0.35686486     0.03500
H506        H  0.57419378  0.59035969  0.38458721     0.08600
H507        H  0.49713182  0.56590699  0.35432356     0.07440
C508        C  0.37703066  0.64575137  0.10335384     0.03470
C509        C  0.35593265  0.62701266  0.10432727    -0.12680
C510        C  0.35530732  0.60739763  0.12451274     0.00970
C511        C  0.37529084  0.60704746  0.14442873    -0.11210
C512        C  0.39635681  0.62593740  0.14407378     0.03460
C513        C  0.39729406  0.64490207  0.12307366    -0.10630
H514        H  0.34010503  0.62749765  0.08929505     0.09050
H515        H  0.37413817  0.59215856  0.16033121     0.06580
H516        H  0.41401874  0.65882338  0.12171556     0.06430
N517        N  0.21010138  0.39692068  0.13907750    -0.26950
N518        N  0.23334406  0.40697474  0.14721558    -0.34810
C519        C  0.24474169  0.38997457  0.16490675     0.01390
C520        C  0.22795082  0.36784725  0.16821948     0.07410
C521        C  0.20623106  0.37310360  0.15128014    -0.05690
H522        H  0.26339627  0.39432711  0.17517731     0.08080
H523        H  0.18835831  0.36103907  0.14847366     0.09280
Cu524      Cu  0.24778171  0.44442502  0.13647740     0.44170
Cu525      Cu  0.18274301  0.41713586  0.11446764     0.41990
Cu526      Cu  0.20090666  0.48668322  0.10237251     0.43880
N527        N  0.25574381  0.48412036  0.12727518    -0.34340
N528        N  0.23809430  0.50015300  0.11550492    -0.28590
C529        C  0.24890411  0.52486678  0.11301844    -0.04690
C530        C  0.27471173  0.52416922  0.12357318     0.07520
C531        C  0.27837782  0.49799954  0.13233576     0.01320
H532        H  0.23904341  0.54176510  0.10344264     0.08970
H533        H  0.29616354  0.48964769  0.14175744     0.08050
N534        N  0.16493592  0.46952666  0.09012793    -0.35790
N535        N  0.15788675  0.44423319  0.09417425    -0.27970
C536        C  0.13289450  0.44043344  0.08415861    -0.03210
C537        C  0.12371661  0.46463116  0.07318741     0.05400
C538        C  0.14488384  0.48242914  0.07751005     0.03500
H539        H  0.12237436  0.42144188  0.08514974     0.08600
H540        H  0.14584497  0.50351298  0.07234216     0.07440
C541        C  0.97808342  0.50637229  0.98614122     0.02620
C542        C  0.98507072  0.52226427  0.00854555     0.02620
C543        C  0.00767178  0.51549973  0.02455759     0.02620
C544        C  0.02358289  0.49255317  0.01798753     0.02620
C545        C  0.01650343  0.47685406  0.99508475     0.02620
C546        C  0.99383996  0.48384808  0.97928445     0.02620
C547        C  0.85719856  0.10317321  0.62337916     0.03470
C548        C  0.87673036  0.10413758  0.64380452    -0.12680
C549        C  0.89627405  0.12456419  0.64410385     0.00970
C550        C  0.89573648  0.14448762  0.62405443    -0.11210
C551        C  0.87663870  0.14359346  0.60316323     0.03460
C552        C  0.85755711  0.12270957  0.60297424    -0.10630
H553        H  0.87658720  0.08912935  0.65963184     0.09050
H554        H  0.90981533  0.16108915  0.62521787     0.06580
H555        H  0.84294971  0.12148665  0.58680372     0.06430
N556        N  0.10174714  0.14576793  0.79887626    -0.26950
N557        N  0.09158041  0.15515523  0.77610862    -0.34810
C558        C  0.10964720  0.17149895  0.76439815     0.01390
C559        C  0.13246210  0.17241312  0.78036034     0.07410
C560        C  0.12676536  0.15579024  0.80207625    -0.05690
H561        H  0.10638104  0.18190781  0.74553574     0.08080
H562        H  0.13947894  0.15188748  0.81933592     0.09280
Cu563      Cu  0.05368002  0.14597971  0.76134731     0.44170
Cu564      Cu  0.08043380  0.12098531  0.82518113     0.41990
Cu565      Cu  0.01237462  0.10468464  0.80294287     0.43880
N566        N  0.01541785  0.13379811  0.75017171    -0.34340
N567        N  0.00009453  0.11857336  0.76564621    -0.28590
C568        C  0.97668078  0.11374845  0.75293896    -0.04690
C569        C  0.97722560  0.12663171  0.72815671     0.07520
C570        C  0.00221996  0.13906556  0.72712021     0.01320
H571        H  0.96084247  0.10116260  0.76096732     0.08970
H572        H  0.01026842  0.15111539  0.71085876     0.08050
N573        N  0.02856762  0.09265617  0.83939879    -0.35790
N574        N  0.05320770  0.09836724  0.84771215    -0.27970
C575        C  0.05689115  0.08746043  0.87228909    -0.03210
C576        C  0.03339788  0.07423724  0.87977516     0.05400
C577        C  0.01598782  0.07801006  0.85830766     0.03500
H578        H  0.07547929  0.08876729  0.88355533     0.08600
H579        H  0.99546911  0.07090918  0.85657471     0.07440
N580        N  0.69990208  0.90088892  0.64935799    -0.26950
N581        N  0.72276687  0.91103945  0.65848234    -0.34810
C582        C  0.73453267  0.89311632  0.67495543     0.01390
C583        C  0.71838592  0.87046270  0.67633917     0.07410
C584        C  0.69665418  0.87603272  0.65969209    -0.05690
H585        H  0.75376975  0.89621834  0.68469776     0.08080
H586        H  0.67958192  0.86312324  0.65563753     0.09280
Cu587      Cu  0.73786098  0.94836215  0.64791684     0.44170
Cu588      Cu  0.67406942  0.92172662  0.62374855     0.41990
Cu589      Cu  0.69744226  0.98831049  0.60358210     0.43880
N590        N  0.74975729  0.98565392  0.63380285    -0.34340
N591        N  0.73483410  0.00045829  0.61752330    -0.28590
C592        C  0.74807797  0.02335820  0.61181526    -0.04690
C593        C  0.77260901  0.02296655  0.62518939     0.07520
C594        C  0.77295708  0.99864424  0.63884715     0.01320
H595        H  0.74055929  0.03876796  0.59840268     0.08970
H596        H  0.78881606  0.99095721  0.65165692     0.08050
N597        N  0.66068830  0.97206104  0.59235533    -0.35790
N598        N  0.65201788  0.94797357  0.59962215    -0.27970
C599        C  0.62730852  0.94402824  0.58915442    -0.03210
C600        C  0.62005809  0.96675556  0.57457830     0.05400
C601        C  0.64183836  0.98401020  0.57706657     0.03500
H602        H  0.61575006  0.92577324  0.59174680     0.08600
H603        H  0.64376022  0.00403631  0.56873988     0.07440
N604        N  0.90161445  0.34722765  0.44776131    -0.26950
N605        N  0.90842425  0.33771003  0.47164388    -0.34810
C606        C  0.92340593  0.35601397  0.48465714     0.01390
C607        C  0.92668846  0.37831025  0.46816466     0.07410
C608        C  0.91240167  0.37193213  0.44488983    -0.05690
H609        H  0.93064774  0.35313976  0.50495442     0.08080
H610        H  0.90990594  0.38427374  0.42712819     0.09280
Cu611      Cu  0.89723963  0.30060592  0.48655667     0.44170
Cu612      Cu  0.87687510  0.32638885  0.42106821     0.41990
Cu613      Cu  0.84824013  0.26449836  0.44942109     0.43880
N614        N  0.88225819  0.26397820  0.49907807    -0.34340
N615        N  0.86311711  0.25105712  0.48590270    -0.28590
C616        C  0.85690434  0.22839439  0.49933565    -0.04690
C617        C  0.87320324  0.22694567  0.52190965     0.07520
C618        C  0.88911553  0.24976152  0.52105097     0.01320
H619        H  0.84215446  0.21375983  0.49278026     0.08970
H620        H  0.90430986  0.25575712  0.53548427     0.08050
N621        N  0.83937941  0.27942484  0.41156241    -0.35790
N622        N  0.84994540  0.30139188  0.40084994    -0.27970
C623        C  0.84025752  0.30433500  0.37566925    -0.03210
C624        C  0.82261125  0.28332284  0.37043750     0.05400
C625        C  0.82274031  0.26791477  0.39364242     0.03500
H626        H  0.84552520  0.32067548  0.36227176     0.08600
H627        H  0.81211819  0.24924260  0.39714379     0.07440
N628        N  0.90224034  0.15234735  0.30289950    -0.26950
N629        N  0.91139980  0.15983771  0.27906056    -0.34810
C630        C  0.89281995  0.17512607  0.26680217     0.01390
C631        C  0.87067419  0.17760988  0.28362154     0.07410
C632        C  0.87748176  0.16287844  0.30645365    -0.05690
H633        H  0.89522437  0.18335318  0.24677954     0.08080
H634        H  0.86559453  0.16006290  0.32447250     0.09280
Cu635      Cu  0.94819832  0.14878674  0.26309947     0.44170
Cu636      Cu  0.92372352  0.12745723  0.32892116     0.41990
Cu637      Cu  0.98734517  0.10263636  0.30114980     0.43880
N638        N  0.98420298  0.13317517  0.24932805    -0.34340
N639        N  0.99823875  0.11517225  0.26295849    -0.28590
C640        C  0.02003995  0.10812672  0.24848629    -0.04690
C641        C  0.01976469  0.12267862  0.22472321     0.07520
C642        C  0.99685256  0.13846807  0.22598985     0.01320
H643        H  0.03533760  0.09411082  0.25513776     0.08970
H644        H  0.98980906  0.15262509  0.21100402     0.08050
N645        N  0.97311460  0.09348879  0.33923031    -0.35790
N646        N  0.95002780  0.10200768  0.34939152    -0.27970
C647        C  0.94708011  0.09159238  0.37425778    -0.03210
C648        C  0.96940685  0.07570931  0.38007010     0.05400
C649        C  0.98551561  0.07770635  0.35731495     0.03500
H650        H  0.92974978  0.09514317  0.38697855     0.08600
H651        H  0.00505762  0.06878247  0.35392354     0.07440
N652        N  0.15305215  0.30314458  0.90160088    -0.26950
N653        N  0.15945898  0.27878199  0.91020309    -0.34810
C654        C  0.17410144  0.26623423  0.89123251     0.01390
C655        C  0.17712824  0.28337461  0.86944140     0.07410
C656        C  0.16351609  0.30668217  0.87682122    -0.05690
H657        H  0.18157261  0.24586327  0.89309650     0.08080
H658        H  0.16150870  0.32502826  0.86529858     0.09280
Cu659      Cu  0.14790982  0.26261257  0.94684014     0.44170
Cu660      Cu  0.12967258  0.33019946  0.92354564     0.41990
Cu661      Cu  0.10180131  0.30176389  0.98504156     0.43880
N662        N  0.13280799  0.25012617  0.98360929    -0.34340
N663        N  0.11543013  0.26457548  0.99759901    -0.28590
C664        C  0.10930066  0.25147285  0.02045875    -0.04690
C665        C  0.12366923  0.22750983  0.02102996     0.07520
C666        C  0.13828185  0.22736822  0.99717974     0.01320
H667        H  0.09514438  0.25888291  0.03526044     0.08970
H668        H  0.15217195  0.21205972  0.99028104     0.08050
N669        N  0.09298583  0.33983342  0.97091155    -0.35790
N670        N  0.10357785  0.35084024  0.94909500    -0.27970
C671        C  0.09401976  0.37612619  0.94659663    -0.03210
C672        C  0.07633929  0.38096072  0.96768599     0.05400
C673        C  0.07631684  0.35754446  0.98268010     0.03500
H674        H  0.09917680  0.38976516  0.93041178     0.08600
H675        H  0.06537235  0.35374108  0.00113986     0.07440
C676        C  0.14539671  0.10649060  0.12557010     0.03470
C677        C  0.12385813  0.10541717  0.14394834    -0.12680
C678        C  0.10246126  0.12393992  0.14251128     0.00970
C679        C  0.10227171  0.14291793  0.12153274    -0.11210
C680        C  0.12379974  0.14468568  0.10330454     0.03460
C681        C  0.14543578  0.12667021  0.10572543    -0.10630
H682        H  0.12367767  0.09005532  0.15936467     0.09050
H683        H  0.08517134  0.15623085  0.11910364     0.06580
H684        H  0.16249654  0.12853543  0.09225322     0.06430
N685        N  0.30083446  0.90217250  0.15057869    -0.26950
N686        N  0.27792861  0.91224460  0.15974540    -0.34810
C687        C  0.26579264  0.89385519  0.17540038     0.01390
C688        C  0.28167298  0.87094295  0.17621733     0.07410
C689        C  0.30379284  0.87699416  0.16020853    -0.05690
H690        H  0.24657714  0.89692925  0.18521361     0.08080
H691        H  0.32105431  0.86433179  0.15618677     0.09280
Cu692      Cu  0.26312185  0.95016577  0.15065056     0.44170
Cu693      Cu  0.32705486  0.92309992  0.12538890     0.41990
Cu694      Cu  0.30016691  0.98656255  0.10123700     0.43880
N695        N  0.25086524  0.98724352  0.13605596    -0.34340
N696        N  0.26411121  0.00008442  0.11690135    -0.28590
C697        C  0.25078705  0.02274968  0.11054771    -0.04690
C698        C  0.22813465  0.02436498  0.12667669     0.07520
C699        C  0.22885885  0.00159623  0.14273047     0.01320
H700        H  0.25733067  0.03714158  0.09556419     0.08970
H701        H  0.21416957  0.99559333  0.15766897     0.08050
N702        N  0.33755389  0.97172485  0.09069399    -0.35790
N703        N  0.34787589  0.94891195  0.09971245    -0.27970
C704        C  0.37289310  0.94604610  0.08956395    -0.03210
C705        C  0.37837525  0.96802361  0.07320075     0.05400
C706        C  0.35550822  0.98388084  0.07456994     0.03500
H707        H  0.38600666  0.92912989  0.09362616     0.08600
H708        H  0.35228178  0.00323304  0.06513578     0.07440
C709        C  0.24265157  0.22776898  0.73324335     0.02620
C710        C  0.26518988  0.24334849  0.72553561     0.02620
C711        C  0.27268531  0.26601484  0.74100204     0.02620
C712        C  0.25728181  0.27349781  0.76370265     0.02620
C713        C  0.23469813  0.25804353  0.77128806     0.02620
C714        C  0.22731174  0.23523004  0.75603211     0.02620
C715        C  0.73472813  0.24254497  0.22703397     0.02620
C716        C  0.72685930  0.26517719  0.24230975     0.02620
C717        C  0.74210148  0.27307045  0.26493992     0.02620
C718        C  0.76519695  0.25828197  0.27235743     0.02620
C719        C  0.77322512  0.23578456  0.25695126     0.02620
C720        C  0.75787418  0.22780014  0.23439048     0.02620
N721        N  0.09923657  0.84911270  0.05257221    -0.26950
N722        N  0.08899219  0.83857652  0.03034518    -0.34810
C723        C  0.07298086  0.85682310  0.01843931     0.01390
C724        C  0.07318597  0.88014042  0.03371599     0.07410
C725        C  0.09005428  0.87449212  0.05527442    -0.05690
H726        H  0.06244895  0.85350077  0.99964324     0.08080
H727        H  0.09509228  0.88766226  0.07189239     0.09280
Cu728      Cu  0.09809031  0.80062577  0.01568413     0.44170
Cu729      Cu  0.12535923  0.82848038  0.07804728     0.41990
Cu730      Cu  0.14908817  0.76457141  0.05116838     0.43880
N731        N  0.11382035  0.76447105  0.00217864    -0.34340
N732        N  0.13355679  0.75177699  0.01470516    -0.28590
C733        C  0.14050730  0.72986671  0.00037522    -0.04690
C734        C  0.12406832  0.72854814  0.97791160     0.07520
C735        C  0.10737504  0.75080620  0.97968955     0.01320
H736        H  0.15607128  0.71573583  0.00610592     0.08970
H737        H  0.09211878  0.75697559  0.96540763     0.08050
N738        N  0.15952408  0.77942668  0.08867026    -0.35790
N739        N  0.15092261  0.80251787  0.09876003    -0.27970
C740        C  0.16107432  0.80546497  0.12375469    -0.03210
C741        C  0.17695164  0.78320083  0.12958847     0.05400
C742        C  0.17528665  0.76710736  0.10684645     0.03500
H743        H  0.15724199  0.82261846  0.13664893     0.08600
H744        H  0.18421569  0.74748291  0.10381188     0.07440
C745        C  0.12618974  0.64737720  0.89415514     0.03470
C746        C  0.10702101  0.64810058  0.87332423    -0.12680
C747        C  0.10646480  0.62807881  0.85337711     0.00970
C748        C  0.12586992  0.60755247  0.85379033    -0.11210
C749        C  0.14526056  0.60653052  0.87432257     0.03460
C750        C  0.14509644  0.62628940  0.89458086    -0.10630
H751        H  0.09266966  0.66450569  0.87233243     0.09050
H752        H  0.12586258  0.59235180  0.83810973     0.06580
H753        H  0.15943116  0.62481801  0.91095804     0.06430
N754        N  0.94834780  0.59962372  0.65139360    -0.26950
N755        N  0.97343860  0.59548482  0.65924470    -0.34810
C756        C  0.98634766  0.58077257  0.64060972     0.01390
C757        C  0.96858177  0.57492400  0.61989100     0.07410
C758        C  0.94465379  0.58743028  0.62740683    -0.05690
H759        H  0.00733418  0.57524462  0.64213021     0.08080
H760        H  0.92584605  0.58749976  0.61641696     0.09280
Cu761      Cu  0.98977037  0.60887019  0.69507249     0.44170
Cu762      Cu  0.92078224  0.62209344  0.67380780     0.41990
Cu763      Cu  0.94752907  0.64719029  0.73798399     0.43880
N764        N  0.00197617  0.62202724  0.73257578    -0.34340
N765        N  0.98623526  0.63615928  0.74867117    -0.28590
C766        C  0.99942980  0.64116435  0.77178037    -0.04690
C767        C  0.02484851  0.62964866  0.77012666     0.07520
C768        C  0.02563888  0.61759008  0.74492520     0.01320
H769        H  0.99108395  0.65240877  0.78849311     0.08970
H770        H  0.04180789  0.60578145  0.73634752     0.08050
N771        N  0.90973237  0.65631993  0.72303034    -0.35790
N772        N  0.89962707  0.64713206  0.70013579    -0.27970
C773        C  0.87473905  0.65747546  0.69685546    -0.03210
C774        C  0.86914245  0.67419051  0.71856044     0.05400
C775        C  0.89175827  0.67277246  0.73475671     0.03500
H776        H  0.86194299  0.65361914  0.67963479     0.08600
H777        H  0.89496156  0.68276316  0.75386527     0.07440
N778        N  0.34826784  0.44909044  0.89928882    -0.26950
N779        N  0.33950330  0.47345294  0.90543372    -0.34810
C780        C  0.35792991  0.48599717  0.92070321     0.01390
C781        C  0.37946316  0.46871192  0.92474087     0.07410
C782        C  0.37264601  0.44549624  0.91065211    -0.05690
H783        H  0.35574924  0.50643987  0.92784654     0.08080
H784        H  0.38436667  0.42720895  0.90898067     0.09280
Cu785      Cu  0.30283078  0.48909564  0.89362637     0.44170
Cu786      Cu  0.32634079  0.42224910  0.87564101     0.41990
Cu787      Cu  0.26030898  0.44720182  0.85386344     0.43880
N788        N  0.26503607  0.50089740  0.88095442    -0.34340
N789        N  0.24912634  0.48541514  0.86633680    -0.28590
C790        C  0.22596267  0.49862433  0.86155813    -0.04690
C791        C  0.22742904  0.52377039  0.87368268     0.07520
C792        C  0.25253013  0.52436934  0.88590260     0.01320
H793        H  0.20942083  0.49057216  0.84988308     0.08970
H794        H  0.26102523  0.54036388  0.89799625     0.08050
N795        N  0.27608397  0.40998817  0.84343301    -0.35790
N796        N  0.29979674  0.40072140  0.85128302    -0.27970
C797        C  0.30352272  0.37605576  0.84060252    -0.03210
C798        C  0.28108088  0.36950925  0.82525600     0.05400
C799        C  0.26419667  0.39159072  0.82756096     0.03500
H800        H  0.32154009  0.36414059  0.84336677     0.08600
H801        H  0.24454399  0.39412592  0.81850468     0.07440
C802        C  0.22612552  0.73630079  0.24359741     0.02620
C803        C  0.24122195  0.72891149  0.26653041     0.02620
C804        C  0.26390014  0.74423069  0.27422171     0.02620
C805        C  0.27163082  0.76684452  0.25885451     0.02620
C806        C  0.25648075  0.77427145  0.23597844     0.02620
C807        C  0.23385459  0.75890457  0.22825268     0.02620
N808        N  0.84995722  0.05017670  0.10213994    -0.26950
N809        N  0.84045022  0.02647958  0.09459860    -0.34810
C810        C  0.85834941  0.01446686  0.07827250     0.01390
C811        C  0.88028650  0.03136263  0.07518535     0.07410
C812        C  0.87434216  0.05377871  0.09080008    -0.05690
H813        H  0.85562558  0.99463348  0.06969489     0.08080
H814        H  0.88662632  0.07157240  0.09342256     0.09280
Cu815      Cu  0.80366848  0.01084994  0.10619347     0.44170
Cu816      Cu  0.82891444  0.07659815  0.12700807     0.41990
Cu817      Cu  0.76279219  0.05243950  0.14799761     0.43880
N818        N  0.76592708  0.99939438  0.11943015    -0.34340
N819        N  0.75069428  0.01489999  0.13475430    -0.28590
C820        C  0.72731470  0.00222449  0.13973666    -0.04690
C821        C  0.72783333  0.97744975  0.12685819     0.07520
C822        C  0.75273391  0.97634353  0.11427766     0.01320
H823        H  0.71141017  0.01036055  0.15221411     0.08970
H824        H  0.76059762  0.96015012  0.10197866     0.08050
N825        N  0.77858643  0.08943724  0.15864902    -0.35790
N826        N  0.80245739  0.09848733  0.15109883    -0.27970
C827        C  0.80601094  0.12333346  0.16138671    -0.03210
C828        C  0.78324270  0.13021173  0.17612684     0.05400
C829        C  0.76639025  0.10812798  0.17391927     0.03500
H830        H  0.82402691  0.13522569  0.15859446     0.08600
H831        H  0.74646616  0.10586473  0.18244141     0.07440
C832        C  0.60465802  0.87560633  0.14475017     0.03470
C833        C  0.60502212  0.85558255  0.12476617    -0.12680
C834        C  0.62557308  0.85492333  0.10530715     0.00970
C835        C  0.64572841  0.87474935  0.10585836    -0.11210
C836        C  0.64568783  0.89484536  0.12576351     0.03460
C837        C  0.62509348  0.89511220  0.14512986    -0.10630
H838        H  0.58930871  0.84046651  0.12439967     0.09050
H839        H  0.66146588  0.87455358  0.09073019     0.06580
H840        H  0.62494487  0.91058952  0.16054150     0.06430
N841        N  0.59988260  0.65117505  0.94893349    -0.26950
N842        N  0.59461683  0.65968805  0.97361502    -0.34810
C843        C  0.57971207  0.64117296  0.98645462     0.01390
C844        C  0.57490842  0.61981882  0.96906760     0.07410
C845        C  0.58822827  0.62692235  0.94544181    -0.05690
H846        H  0.57337797  0.64324874  0.00717025     0.08080
H847        H  0.58927837  0.61544125  0.92694230     0.09280
Cu848      Cu  0.60699765  0.69617159  0.98951952     0.44170
Cu849      Cu  0.62324241  0.67289534  0.92155563     0.41990
Cu850      Cu  0.64939476  0.73628755  0.94849434     0.43880
N851        N  0.62026864  0.73390830  0.00114207    -0.34340
N852        N  0.63604869  0.74882895  0.98585093    -0.28590
C853        C  0.64097325  0.77229318  0.99842238    -0.04690
C854        C  0.62751991  0.77221012  0.02292354     0.07520
C855        C  0.61468655  0.74742494  0.02393913     0.01320
H856        H  0.65373982  0.78796111  0.99035715     0.08970
H857        H  0.60190924  0.73985715  0.03987801     0.08050
N858        N  0.65884046  0.72107775  0.91092535    -0.35790
N859        N  0.64902529  0.69858769  0.90054898    -0.27970
C860        C  0.65896864  0.69551428  0.87545160    -0.03210
C861        C  0.67607003  0.71692802  0.87005306     0.05400
C862        C  0.67535065  0.73271063  0.89297953     0.03500
H863        H  0.65439809  0.67875710  0.86228096     0.08600
H864        H  0.68561783  0.75163354  0.89627413     0.07440
N865        N  0.44994559  0.89805907  0.34992572    -0.26950
N866        N  0.47184306  0.90903921  0.33943896    -0.34810
C867        C  0.48315984  0.92548765  0.35774019     0.01390
C868        C  0.46793068  0.92457794  0.38104049     0.07410
C869        C  0.44703958  0.90695886  0.37540620    -0.05690
H870        H  0.50142117  0.93690745  0.35446553     0.08080
H871        H  0.43062606  0.90144863  0.38863398     0.09280
Cu872      Cu  0.48650429  0.90053107  0.30129501     0.44170
Cu873      Cu  0.42429522  0.87247443  0.32867124     0.41990
Cu874      Cu  0.44590958  0.85738704  0.26032607     0.43880
N875        N  0.49843926  0.88695700  0.26368370    -0.34340
N876        N  0.48334692  0.87120726  0.24847010    -0.28590
C877        C  0.49667762  0.86554833  0.22557666    -0.04690
C878        C  0.52154014  0.87817433  0.22649962     0.07520
C879        C  0.52188155  0.89165331  0.25097560     0.01320
H880        H  0.48902038  0.85271567  0.20970414     0.08970
H881        H  0.53780500  0.90418326  0.25895500     0.08050
N882        N  0.40991300  0.84436191  0.27672251    -0.35790
N883        N  0.40183186  0.84954459  0.30157059    -0.27970
C884        C  0.37756836  0.83800952  0.30541203    -0.03210
C885        C  0.37015472  0.82475937  0.28188876     0.05400
C886        C  0.39118681  0.82944981  0.26416247     0.03500
H887        H  0.36627856  0.83904426  0.32403299     0.08600
H888        H  0.39271728  0.82304040  0.24339338     0.07440
C889        C  0.87421946  0.64556912  0.39537783     0.03470
C890        C  0.85469542  0.62507568  0.39577981    -0.12680
C891        C  0.85441383  0.60498962  0.37586625     0.00970
C892        C  0.87429332  0.60501705  0.35578762    -0.11210
C893        C  0.89408608  0.62512294  0.35530275     0.03460
C894        C  0.89380044  0.64539757  0.37494716    -0.10630
H895        H  0.84010361  0.62422168  0.41197970     0.09050
H896        H  0.87444752  0.58929367  0.34062562     0.06580
H897        H  0.90875371  0.66125554  0.37404998     0.06430
N898        N  0.09806979  0.65108187  0.19843681    -0.26950
N899        N  0.09013799  0.65646257  0.22331611    -0.34810
C900        C  0.10925030  0.67087471  0.23585248     0.01390
C901        C  0.13045720  0.67484578  0.21821767     0.07410
C902        C  0.12269120  0.66191343  0.19463163    -0.05690
H903        H  0.10768662  0.67802895  0.25639270     0.08080
H904        H  0.13366808  0.66113365  0.17581751     0.09280
Cu905      Cu  0.05357128  0.64529650  0.23989570     0.44170
Cu906      Cu  0.07435195  0.63015229  0.17065664     0.41990
Cu907      Cu  0.00863984  0.61057842  0.19643348     0.43880
N908        N  0.01559621  0.63308803  0.25189010    -0.34340
N909        N  0.99898542  0.62033127  0.23554332    -0.28590
C910        C  0.97581109  0.61534739  0.24850558    -0.04690
C911        C  0.97783282  0.62545049  0.27444187     0.07520
C912        C  0.00341912  0.63663925  0.27583507     0.01320
H913        H  0.95881155  0.60502963  0.23961308     0.08970
H914        H  0.01237944  0.64722728  0.29263193     0.08050
N915        N  0.02238000  0.60081801  0.15854902    -0.35790
N916        N  0.04605447  0.60803903  0.14871623    -0.27970
C917        C  0.04880689  0.59720676  0.12397626    -0.03210
C918        C  0.02594993  0.58217293  0.11829821     0.05400
C919        C  0.00961317  0.58508855  0.14063187     0.03500
H920        H  0.06661662  0.59910626  0.11156107     0.08600
H921        H  0.99002785  0.57613493  0.14390409     0.07440
N922        N  0.84890464  0.80182947  0.59827350    -0.26950
N923        N  0.84150998  0.77822574  0.58849768    -0.34810
C924        C  0.82600104  0.76553451  0.60659722     0.01390
C925        C  0.82304214  0.78196414  0.62899354     0.07410
C926        C  0.83804099  0.80482648  0.62297059    -0.05690
H927        H  0.81815522  0.74547032  0.60363608     0.08080
H928        H  0.84085985  0.82240496  0.63553304     0.09280
Cu929      Cu  0.85276823  0.76340789  0.55132736     0.44170
Cu930      Cu  0.87410381  0.82809439  0.57746497     0.41990
Cu931      Cu  0.90223530  0.80035149  0.51496426     0.43880
N932        N  0.86803758  0.75074585  0.51481934    -0.34340
N933        N  0.88732446  0.76371259  0.50189663    -0.28590
C934        C  0.89365600  0.75000276  0.47938841    -0.04690
C935        C  0.87727175  0.72750989  0.47805016     0.07520
C936        C  0.86120127  0.72867011  0.50074933     0.01320
H937        H  0.90854512  0.75630656  0.46477860     0.08970
H938        H  0.84592852  0.71436058  0.50678380     0.08050
N939        N  0.91047241  0.83848320  0.52966501    -0.35790
N940        N  0.90014845  0.84883397  0.55195512    -0.27970
C941        C  0.90912952  0.87425988  0.55476941    -0.03210
C942        C  0.92587596  0.88020814  0.53317378     0.05400
C943        C  0.92623239  0.85694790  0.51778302     0.03500
H944        H  0.90403779  0.88722298  0.57153102     0.08600
H945        H  0.93675655  0.85374970  0.49895754     0.07440
N946        N  0.69892676  0.40055674  0.35144902    -0.26950
N947        N  0.72365900  0.40891781  0.34625221    -0.34810
C948        C  0.73627180  0.39058839  0.33090827     0.01390
C949        C  0.71867343  0.36957421  0.32583746     0.07410
C950        C  0.69519581  0.37652173  0.33940908    -0.05690
H951        H  0.75690978  0.39252438  0.32426432     0.08080
H952        H  0.67660853  0.36519476  0.34013375     0.09280
Cu953      Cu  0.73972514  0.44516139  0.35876559     0.44170
Cu954      Cu  0.67153332  0.42262673  0.37439234     0.41990
Cu955      Cu  0.69646136  0.48878075  0.39514987     0.43880
N956        N  0.75123526  0.48325139  0.37076151    -0.34340
N957        N  0.73504950  0.49961649  0.38405440    -0.28590
C958        C  0.74784550  0.52303377  0.38849429    -0.04690
C959        C  0.77347252  0.52130524  0.37750156     0.07520
C960        C  0.77481729  0.49573874  0.36632673     0.01320
H961        H  0.73912736  0.53996938  0.39909277     0.08970
H962        H  0.79134488  0.48696660  0.35516909     0.08050
N963        N  0.65926746  0.47338379  0.40563991    -0.35790
N964        N  0.64991421  0.44955784  0.39829492    -0.27970
C965        C  0.62535213  0.44610661  0.40932065    -0.03210
C966        C  0.61915076  0.46875182  0.42451857     0.05400
C967        C  0.64110006  0.48562554  0.42147775     0.03500
H968        H  0.61318230  0.42820656  0.40689760     0.08600
H969        H  0.64375340  0.50553070  0.42990524     0.07440
N970        N  0.94720046  0.90214927  0.15221387    -0.26950
N971        N  0.97201723  0.90742531  0.16026677    -0.34810
C972        C  0.98455841  0.92205591  0.14132158     0.01390
C973        C  0.96690737  0.92633994  0.12011535     0.07410
C974        C  0.94332311  0.91339958  0.12784251    -0.05690
H975        H  0.00521427  0.92877482  0.14288043     0.08080
H976        H  0.92453547  0.91242056  0.11689853     0.09280
Cu977      Cu  0.98841585  0.89498529  0.19649640     0.44170
Cu978      Cu  0.91997950  0.87935069  0.17448601     0.41990
Cu979      Cu  0.94690925  0.85278699  0.23713211     0.43880
N980        N  0.00015572  0.88089964  0.23389094    -0.34340
N981        N  0.98469414  0.86535507  0.24890159    -0.28590
C982        C  0.99745673  0.85984919  0.27210635    -0.04690
C983        C  0.02225156  0.87262994  0.27175677     0.07520
C984        C  0.02329115  0.88569648  0.24710110     0.01320
H985        H  0.98931456  0.84713224  0.28778618     0.08970
H986        H  0.03946821  0.89810558  0.23944249     0.08050
N987        N  0.90907055  0.84384971  0.22250810    -0.35790
N988        N  0.89873779  0.85389669  0.20011756    -0.27970
C989        C  0.87362443  0.84414759  0.19694480    -0.03210
C990        C  0.86807068  0.82704327  0.21831398     0.05400
C991        C  0.89104731  0.82734896  0.23402536     0.03500
H992        H  0.86070292  0.84865873  0.17999235     0.08600
H993        H  0.89440190  0.81654243  0.25264805     0.07440
C994        C  0.12464762  0.85294301  0.39448062     0.03470
C995        C  0.10538238  0.85228644  0.37372927    -0.12680
C996        C  0.10482245  0.87233251  0.35383218     0.00970
C997        C  0.12390813  0.89309905  0.35455706    -0.11210
C998        C  0.14338868  0.89397859  0.37494968     0.03460
C999        C  0.14352437  0.87403162  0.39496000    -0.10630
H1000       H  0.09096498  0.83594445  0.37276891     0.09050
H1001       H  0.12363311  0.90860385  0.33921112     0.06580
H1002       H  0.15804648  0.87537105  0.41118802     0.06430
N1003       N  0.29808366  0.09948845  0.35349813    -0.26950
N1004       N  0.27404058  0.09080402  0.34603022    -0.34810
C1005       C  0.26234373  0.10940723  0.33028134     0.01390
C1006       C  0.27971350  0.13105215  0.32752195     0.07410
C1007       C  0.30223269  0.12401424  0.34261879    -0.05690
H1008       H  0.24255747  0.10719506  0.32143893     0.08080
H1009       H  0.32061633  0.13543418  0.34497380     0.09280
Cu1010     Cu  0.25793423  0.05369292  0.35614964     0.44170
Cu1011     Cu  0.32430093  0.07700540  0.37757181     0.41990
Cu1012     Cu  0.30086221  0.01005668  0.39449613     0.43880
N1013       N  0.24710616  0.01495502  0.36710959    -0.34340
N1014       N  0.26322045  0.99889378  0.38086452    -0.28590
C1015       C  0.25080129  0.97526302  0.38499372    -0.04690
C1016       C  0.22554494  0.97636019  0.37319771     0.07520
C1017       C  0.22386854  0.00194798  0.36212801     0.01320
H1018       H  0.25936778  0.95888808  0.39648916     0.08970
H1019       H  0.20707856  0.01049471  0.35118319     0.08050
N1020       N  0.33686089  0.02581643  0.40809525    -0.35790
N1021       N  0.34560991  0.05014728  0.40199212    -0.27970
C1022       C  0.36953821  0.05405906  0.41410806    -0.03210
C1023       C  0.37627716  0.03106753  0.42879056     0.05400
C1024       C  0.35483123  0.01365972  0.42426344     0.03500
H1025       H  0.38095711  0.07239179  0.41193821     0.08600
H1026       H  0.35227878  0.99347255  0.43195804     0.07440
N1027       N  0.10140348  0.64962630  0.55046840    -0.26950
N1028       N  0.09044076  0.66050470  0.52876879    -0.34810
C1029       C  0.07399020  0.64248302  0.51713551     0.01390
C1030       C  0.07464635  0.61898670  0.53206230     0.07410
C1031       C  0.09225894  0.62424620  0.55309828    -0.05690
H1032       H  0.06269706  0.64614447  0.49885778     0.08080
H1033       H  0.09766803  0.61088176  0.56941965     0.09280
Cu1034     Cu  0.09869653  0.69879479  0.51467060     0.44170
Cu1035     Cu  0.12778176  0.67003017  0.57578732     0.41990
Cu1036     Cu  0.14805270  0.73589827  0.55118596     0.43880
N1037       N  0.11349901  0.73548076  0.50176110    -0.34340
N1038       N  0.13271510  0.74858548  0.51466729    -0.28590
C1039       C  0.13933081  0.77072713  0.50059402    -0.04690
C1040       C  0.12317918  0.77175520  0.47792517     0.07520
C1041       C  0.10701690  0.74911602  0.47929122     0.01320
H1042       H  0.15448830  0.78517705  0.50661138     0.08970
H1043       H  0.09214338  0.74266574  0.46472254     0.08050
N1044       N  0.15877324  0.72060171  0.58836138    -0.35790
N1045       N  0.15180969  0.69660692  0.59743975    -0.27970
C1046       C  0.16209106  0.69334074  0.62232656    -0.03210
C1047       C  0.17611647  0.71654448  0.62935538     0.05400
C1048       C  0.17344912  0.73328552  0.60716116     0.03500
H1049       H  0.15961234  0.67522794  0.63409254     0.08600
H1050       H  0.18124492  0.75345981  0.60477528     0.07440
N1051       N  0.19817006  0.90238895  0.84838280    -0.26950
N1052       N  0.22195872  0.91193756  0.84128505    -0.34810
C1053       C  0.23474611  0.89368577  0.82601102     0.01390
C1054       C  0.21818825  0.87144134  0.82286434     0.07410
C1055       C  0.19514639  0.87770315  0.83753511    -0.05690
H1056       H  0.25493167  0.89648419  0.81840940     0.08080
H1057       H  0.17741245  0.86533557  0.84010708     0.09280
Cu1058     Cu  0.23691276  0.94909877  0.85235059     0.44170
Cu1059     Cu  0.17162109  0.92344987  0.87310905     0.41990
Cu1060     Cu  0.19880732  0.98693140  0.89953242     0.43880
N1061       N  0.24957693  0.98581206  0.86711521    -0.34340
N1062       N  0.23605983  0.99935136  0.88561286    -0.28590
C1063       C  0.24989399  0.02172430  0.89206462    -0.04690
C1064       C  0.27299719  0.02240110  0.87648688     0.07520
C1065       C  0.27215048  0.99935718  0.86087951     0.01320
H1066       H  0.24335775  0.03664024  0.90656880     0.08970
H1067       H  0.28704323  0.99268028  0.84641731     0.08050
N1068       N  0.16082931  0.97208679  0.90817097    -0.35790
N1069       N  0.15075343  0.94932408  0.89871084    -0.27970
C1070       C  0.12562482  0.94619789  0.90844360    -0.03210
C1071       C  0.11956969  0.96810607  0.92477290     0.05400
C1072       C  0.14246320  0.98401358  0.92403258     0.03500
H1073       H  0.11303967  0.92893913  0.90426783     0.08600
H1074       H  0.14559322  0.00309388  0.93407295     0.07440
C1075       C  0.37517368  0.14554875  0.89550236     0.03470
C1076       C  0.35571117  0.12498301  0.89601018    -0.12680
C1077       C  0.35598565  0.10410706  0.87685937     0.00970
C1078       C  0.37617823  0.10397028  0.85702109    -0.11210
C1079       C  0.39560873  0.12443376  0.85598262     0.03460
C1080       C  0.39505614  0.14506913  0.87533658    -0.10630
H1081       H  0.34026708  0.12525023  0.91137242     0.09050
H1082       H  0.37713658  0.08760152  0.84260653     0.06580
H1083       H  0.40985898  0.16105888  0.87433820     0.06430
N1084       N  0.33663666  0.30682446  0.09266100    -0.26950
N1085       N  0.32647113  0.28486538  0.08148882    -0.34810
C1086       C  0.30977053  0.27284533  0.09915014     0.01390
C1087       C  0.30968393  0.28763771  0.12278534     0.07410
C1088       C  0.32699341  0.30901072  0.11795726    -0.05690
H1089       H  0.30015543  0.25357976  0.09582637     0.08080
H1090       H  0.33302592  0.32436982  0.13219970     0.09280
Cu1091     Cu  0.33987863  0.26895952  0.04515674     0.44170
Cu1092     Cu  0.36532577  0.33131159  0.07387484     0.41990
Cu1093     Cu  0.39919331  0.29995556  0.01713939     0.43880
N1094       N  0.36096940  0.25327945  0.01257127    -0.34340
N1095       N  0.38340735  0.26397560  0.00305512    -0.28590
C1096       C  0.39232484  0.24893232  0.98231548    -0.04690
C1097       C  0.37451463  0.22781781  0.97847398     0.07520
C1098       C  0.35487128  0.23127502  0.99800432     0.01320
H1099       H  0.40984169  0.25368939  0.97026047     0.08970
H1100       H  0.33737047  0.21874890  0.00135517     0.08050
N1101       N  0.40763794  0.33853118  0.03069832    -0.35790
N1102       N  0.39497063  0.35048838  0.05086468    -0.27970
C1103       C  0.40422790  0.37592617  0.05310356    -0.03210
C1104       C  0.42369732  0.38014349  0.03339377     0.05400
C1105       C  0.42527283  0.35586261  0.01972023     0.03500
H1106       H  0.39735990  0.39016060  0.06810978     0.08600
H1107       H  0.43777452  0.35129246  0.00245091     0.07440
N1108       N  0.60029612  0.14817731  0.70038413    -0.26950
N1109       N  0.59035932  0.15633636  0.72373058    -0.34810
C1110       C  0.60815712  0.17272631  0.73578252     0.01390
C1111       C  0.63051690  0.17509076  0.71934607     0.07410
C1112       C  0.62493802  0.15907219  0.69712601    -0.05690
H1113       H  0.60512657  0.18185970  0.75534939     0.08080
H1114       H  0.63764505  0.15591977  0.67968917     0.09280
Cu1115     Cu  0.55338025  0.14499401  0.73906306     0.44170
Cu1116     Cu  0.57930090  0.12318705  0.67396711     0.41990
Cu1117     Cu  0.51342678  0.10119141  0.69890500     0.43880
N1118       N  0.51616836  0.13099127  0.75127605    -0.34340
N1119       N  0.50119179  0.11485735  0.73637705    -0.28590
C1120       C  0.47815236  0.10953855  0.74959939    -0.04690
C1121       C  0.47876668  0.12284426  0.77417909     0.07520
C1122       C  0.50320344  0.13632669  0.77443473     0.01320
H1123       H  0.46227676  0.09672192  0.74195986     0.08970
H1124       H  0.51088454  0.14951543  0.78998137     0.08050
N1125       N  0.52935667  0.09057333  0.66182305    -0.35790
N1126       N  0.55290234  0.09869673  0.65236722    -0.27970
C1127       C  0.55635270  0.08840190  0.62746429    -0.03210
C1128       C  0.53394881  0.07295987  0.62107459     0.05400
C1129       C  0.51737068  0.07481479  0.64340528     0.03500
H1130       H  0.57406546  0.09159038  0.61518802     0.08600
H1131       H  0.49775647  0.06569842  0.64598987     0.07440
C1132       C  0.98341699  0.97828721  0.50819370     0.02620
C1133       C  0.97585432  0.99379597  0.48561668     0.02620
C1134       C  0.99137135  0.01635908  0.47806558     0.02620
C1135       C  0.01424460  0.02362813  0.49327202     0.02620
C1136       C  0.02182782  0.00809521  0.51580033     0.02620
C1137       C  0.00634573  0.98551621  0.52335830     0.02620
N1138       N  0.94965401  0.39888955  0.85047236    -0.26950
N1139       N  0.97396696  0.40541091  0.84180186    -0.34810
C1140       C  0.98637897  0.42039688  0.86056849     0.01390
C1141       C  0.96919793  0.42365004  0.88232967     0.07410
C1142       C  0.94599694  0.40970800  0.87511347    -0.05690
H1143       H  0.00662285  0.42813683  0.85846211     0.08080
H1144       H  0.92756898  0.40786909  0.88655545     0.09280
Cu1145     Cu  0.98993555  0.39442994  0.80491531     0.44170
Cu1146     Cu  0.92263748  0.37558937  0.82822512     0.41990
Cu1147     Cu  0.94694921  0.35727462  0.76134611     0.43880
N1148       N  0.00177105  0.38178924  0.76703150    -0.34340
N1149       N  0.98575204  0.36811825  0.75082019    -0.28590
C1150       C  0.99887103  0.36292564  0.72771133    -0.04690
C1151       C  0.02453481  0.37382685  0.72943060     0.07520
C1152       C  0.02556201  0.38572855  0.75471475     0.01320
H1153       H  0.99033298  0.35185717  0.71098894     0.08970
H1154       H  0.04204044  0.39698361  0.76341894     0.08050
N1155       N  0.90973778  0.34627427  0.77649124    -0.35790
N1156       N  0.90080273  0.35232292  0.80083777    -0.27970
C1157       C  0.87637526  0.34098364  0.80417411    -0.03210
C1158       C  0.86962128  0.32704359  0.78079788     0.05400
C1159       C  0.89133196  0.33117324  0.76370004     0.03500
H1160       H  0.86462317  0.34249815  0.82246630     0.08600
H1161       H  0.89379900  0.32408147  0.74326885     0.07440
C1162       C  0.12484703  0.35543672  0.60434770     0.03470
C1163       C  0.10605260  0.35441008  0.62552273    -0.12680
C1164       C  0.10587635  0.37413025  0.64579280     0.00970
C1165       C  0.12539489  0.39453524  0.64542617    -0.11210
C1166       C  0.14429714  0.39599106  0.62444343     0.03460
C1167       C  0.14354978  0.37667437  0.60376713    -0.10630
H1168       H  0.09173395  0.33799639  0.62656679     0.09050
H1169       H  0.12580515  0.40931200  0.66149290     0.06580
H1170       H  0.15740100  0.37849664  0.58701312     0.06430
N1171       N  0.09817469  0.15185449  0.44787826    -0.26950
N1172       N  0.08869089  0.16255865  0.47037081    -0.34810
C1173       C  0.07253702  0.14470660  0.48263124     0.01390
C1174       C  0.07158794  0.12151530  0.46719375     0.07410
C1175       C  0.08825431  0.12672600  0.44534297    -0.05690
H1176       H  0.06285716  0.14822967  0.50183825     0.08080
H1177       H  0.09277072  0.11330409  0.42876057     0.09280
Cu1178     Cu  0.09858021  0.20030177  0.48491636     0.44170
Cu1179     Cu  0.12447778  0.17199155  0.42205349     0.41990
Cu1180     Cu  0.14927551  0.23572830  0.44908315     0.43880
N1181       N  0.11385933  0.23678221  0.49787966    -0.34340
N1182       N  0.13349133  0.24939623  0.48514158    -0.28590
C1183       C  0.14004798  0.27175226  0.49894878    -0.04690
C1184       C  0.12344910  0.27343039  0.52129818     0.07520
C1185       C  0.10709211  0.25090479  0.51999206     0.01320
H1186       H  0.15547444  0.28591313  0.49295655     0.08970
H1187       H  0.09185229  0.24486671  0.53434756     0.08050
N1188       N  0.15981864  0.22038114  0.41178938    -0.35790
N1189       N  0.15077898  0.19752085  0.40155182    -0.27970
C1190       C  0.16109133  0.19445306  0.37661068    -0.03210
C1191       C  0.17754748  0.21636087  0.37101519     0.05400
C1192       C  0.17603804  0.23237733  0.39380634     0.03500
H1193       H  0.15693819  0.17749322  0.36356576     0.08600
H1194       H  0.18533188  0.25180693  0.39695293     0.07440
N1195       N  0.30077955  0.59968815  0.64887907    -0.26950
N1196       N  0.27811628  0.58939557  0.65838179    -0.34810
C1197       C  0.26642323  0.60731905  0.67492799     0.01390
C1198       C  0.28234921  0.63011837  0.67592919     0.07410
C1199       C  0.30390172  0.62466661  0.65901027    -0.05690
H1200       H  0.24733935  0.60414524  0.68495021     0.08080
H1201       H  0.32074799  0.63775331  0.65461240     0.09280
Cu1202     Cu  0.26268539  0.55209306  0.64815263     0.44170
Cu1203     Cu  0.32659298  0.57908561  0.62294909     0.41990
Cu1204     Cu  0.30104452  0.51392012  0.60131752     0.43880
N1205       N  0.25014704  0.51514093  0.63363346    -0.34340
N1206       N  0.26443061  0.50103298  0.61619791    -0.28590
C1207       C  0.25124839  0.47815254  0.61035142    -0.04690
C1208       C  0.22739748  0.47777719  0.62487780     0.07520
C1209       C  0.22736584  0.50168177  0.63933783     0.01320
H1210       H  0.25837214  0.46325942  0.59612858     0.08970
H1211       H  0.21204056  0.50873271  0.65314915     0.08050
N1212       N  0.33791494  0.52938885  0.58992146    -0.35790
N1213       N  0.34770749  0.55282276  0.59790609    -0.27970
C1214       C  0.37256128  0.55587780  0.58741381    -0.03210
C1215       C  0.37846146  0.53338070  0.57188661     0.05400
C1216       C  0.35602853  0.51704226  0.57410407     0.03500
H1217       H  0.38531023  0.57322208  0.59074765     0.08600
H1218       H  0.35324394  0.49722030  0.56550867     0.07440
C1219       C  0.23434025  0.24205235  0.27247067     0.02620
C1220       C  0.25678491  0.22659388  0.26454068     0.02620
C1221       C  0.27147408  0.23363805  0.24118966     0.02620
C1222       C  0.26362997  0.25619263  0.22557310     0.02620
C1223       C  0.24200714  0.27267790  0.23455743     0.02620
C1224       C  0.22685307  0.26506522  0.25755211     0.02620
C1225       C  0.85460138  0.39479397  0.12405626     0.03470
C1226       C  0.87458739  0.39467379  0.14413033    -0.12680
C1227       C  0.89449363  0.37453755  0.14464494     0.00970
C1228       C  0.89421737  0.35437815  0.12478247    -0.11210
C1229       C  0.87460794  0.35452482  0.10450492     0.03460
C1230       C  0.85498986  0.37476451  0.10407442    -0.10630
H1231       H  0.87473403  0.41039343  0.15927720     0.09050
H1232       H  0.90930883  0.33860079  0.12498911     0.06580
H1233       H  0.84017389  0.37496625  0.08803930     0.06430
N1234       N  0.85253745  0.19991553  0.89995956    -0.26950
N1235       N  0.84499227  0.22368895  0.90933482    -0.34810
C1236       C  0.82896149  0.23570839  0.89118314     0.01390
C1237       C  0.82646094  0.21893215  0.86909299     0.07410
C1238       C  0.84171809  0.19638576  0.87530947    -0.05690
H1239       H  0.82002709  0.25541402  0.89378741     0.08080
H1240       H  0.84430516  0.17849660  0.86312608     0.09280
Cu1241     Cu  0.85660754  0.23956637  0.94607832     0.44170
Cu1242     Cu  0.87641255  0.17314086  0.92168273     0.41990
Cu1243     Cu  0.89463642  0.19658538  0.98901877     0.43880
N1244       N  0.86919777  0.25103338  0.98410358    -0.34340
N1245       N  0.88224030  0.23464128  0.00049560    -0.28590
C1246       C  0.88645451  0.24721633  0.02412709    -0.04690
C1247       C  0.87593630  0.27291810  0.02225407     0.07520
C1248       C  0.86518532  0.27471484  0.99662274     0.01320
H1249       H  0.89680258  0.23847789  0.04119681     0.08970
H1250       H  0.85475829  0.29174608  0.98791853     0.08050
N1251       N  0.90682328  0.16021883  0.97275566    -0.35790
N1252       N  0.90002999  0.15128301  0.94858142    -0.27970
C1253       C  0.91117893  0.12682648  0.94485678    -0.03210
C1254       C  0.92596560  0.12031158  0.96764161     0.05400
C1255       C  0.92262677  0.14194444  0.98488000     0.03500
H1256       H  0.90897901  0.11485386  0.92676373     0.08600
H1257       H  0.93064670  0.14412610  0.00503011     0.07440
N1258       N  0.09689794  0.34665575  0.30313857    -0.26950
N1259       N  0.08805550  0.33937773  0.27907443    -0.34810
C1260       C  0.10656407  0.32363474  0.26719924     0.01390
C1261       C  0.12825750  0.32084465  0.28447317     0.07410
C1262       C  0.12150920  0.33586863  0.30704912    -0.05690
H1263       H  0.10465396  0.31554321  0.24704287     0.08080
H1264       H  0.13356542  0.33875005  0.32498044     0.09280
Cu1265     Cu  0.05206831  0.35195426  0.26210626     0.44170
Cu1266     Cu  0.07513600  0.37142236  0.32906836     0.41990
Cu1267     Cu  0.01303042  0.39851384  0.30053772     0.43880
N1268       N  0.01580486  0.36758900  0.24866590    -0.34340
N1269       N  0.00127876  0.38465644  0.26300191    -0.28590
C1270       C  0.97853019  0.39042077  0.24949713    -0.04690
C1271       C  0.97880411  0.37644309  0.22531431     0.07520
C1272       C  0.00280297  0.36214559  0.22552380     0.01320
H1273       H  0.96294494  0.40379583  0.25680237     0.08970
H1274       H  0.00998551  0.34816391  0.21042210     0.08050
N1275       N  0.02760298  0.40824821  0.33839032    -0.35790
N1276       N  0.04962924  0.39790877  0.34924002    -0.27970
C1277       C  0.05250319  0.40783075  0.37433994    -0.03210
C1278       C  0.03147783  0.42551697  0.37931849     0.05400
C1279       C  0.01609352  0.42519028  0.35608889     0.03500
H1280       H  0.06887696  0.40281493  0.38781422     0.08600
H1281       H  0.99751614  0.43597925  0.35246330     0.07440
N1282       N  0.69867440  0.59935797  0.14867028    -0.26950
N1283       N  0.72200859  0.58952151  0.15695622    -0.34810
C1284       C  0.73411128  0.60757104  0.17305000     0.01390
C1285       C  0.71777173  0.63002242  0.17502965     0.07410
C1286       C  0.69552152  0.62422055  0.15913906    -0.05690
H1287       H  0.75368673  0.60469619  0.18217354     0.08080
H1288       H  0.67817553  0.63696197  0.15574074     0.09280
Cu1289     Cu  0.73755885  0.55254544  0.14581581     0.44170
Cu1290     Cu  0.67220621  0.57802841  0.12389299     0.41990
Cu1291     Cu  0.69842473  0.51322076  0.10056865     0.43880
N1292       N  0.75019876  0.51561379  0.13137508    -0.34340
N1293       N  0.73563820  0.50091482  0.11468220    -0.28590
C1294       C  0.74893817  0.47796910  0.10920795    -0.04690
C1295       C  0.77322549  0.47834464  0.12298678     0.07520
C1296       C  0.77325434  0.50255559  0.13689981     0.01320
H1297       H  0.74153779  0.46230172  0.09598495     0.08970
H1298       H  0.78856120  0.50998952  0.15049944     0.08050
N1299       N  0.66113904  0.52858901  0.09006963    -0.35790
N1300       N  0.65103444  0.55161247  0.09892046    -0.27970
C1301       C  0.62599568  0.55457468  0.08881371    -0.03210
C1302       C  0.62036117  0.53255240  0.07255605     0.05400
C1303       C  0.64308906  0.51653708  0.07393959     0.03500
H1304       H  0.61301426  0.57164233  0.09271196     0.08600
H1305       H  0.64613958  0.49718258  0.06439279     0.07440
C1306       C  0.89364579  0.87457400  0.85382659     0.03470
C1307       C  0.89341290  0.85484393  0.87404592    -0.12680
C1308       C  0.87297022  0.85442052  0.89361775     0.00970
C1309       C  0.85252842  0.87395656  0.89266265    -0.11210
C1310       C  0.85273375  0.89404187  0.87279502     0.03460
C1311       C  0.87323726  0.89411061  0.85334299    -0.10630
H1312       H  0.90910396  0.83968246  0.87444826     0.09050
H1313       H  0.83644554  0.87361296  0.90741877     0.06580
H1314       H  0.87327899  0.90937526  0.83774977     0.06430
N1315       N  0.05154110  0.90024654  0.65131256    -0.26950
N1316       N  0.02692650  0.90599004  0.65967491    -0.34810
C1317       C  0.01441841  0.92092628  0.64096250     0.01390
C1318       C  0.03186417  0.92490994  0.61956205     0.07410
C1319       C  0.05530373  0.91146268  0.62688885    -0.05690
H1320       H  0.99394101  0.92812843  0.64282828     0.08080
H1321       H  0.07391858  0.91023022  0.61565182     0.09280
Cu1322     Cu  0.01079172  0.89390087  0.69605968     0.44170
Cu1323     Cu  0.07852398  0.87720608  0.67369530     0.41990
Cu1324     Cu  0.05186782  0.85280456  0.73798102     0.43880
N1325       N  0.99859145  0.88066225  0.73354423    -0.34340
N1326       N  0.01387495  0.86562554  0.74924714    -0.28590
C1327       C  0.00068953  0.86080958  0.77240654    -0.04690
C1328       C  0.97574968  0.87330835  0.77112804     0.07520
C1329       C  0.97520395  0.88578139  0.74616603     0.01320
H1330       H  0.00862936  0.84891522  0.78883996     0.08970
H1331       H  0.95933190  0.89820104  0.73792143     0.08050
N1332       N  0.08935148  0.84282757  0.72275960    -0.35790
N1333       N  0.09947571  0.85200573  0.69988342    -0.27970
C1334       C  0.12436991  0.84171408  0.69659640    -0.03210
C1335       C  0.12995244  0.82502469  0.71826733     0.05400
C1336       C  0.10731445  0.82634211  0.73444605     0.03500
H1337       H  0.13724165  0.84570584  0.67946539     0.08600
H1338       H  0.10419798  0.81641921  0.75358852     0.07440
N1339       N  0.65009653  0.05204293  0.89865708    -0.26950
N1340       N  0.65819710  0.02733942  0.90425021    -0.34810
C1341       C  0.63952213  0.01511089  0.91943655     0.01390
C1342       C  0.61841703  0.03287561  0.92393474     0.07410
C1343       C  0.62597449  0.05620164  0.91036193    -0.05690
H1344       H  0.64137303  0.99462423  0.92651823     0.08080
H1345       H  0.61519615  0.07505275  0.90925256     0.09280
Cu1346     Cu  0.69446637  0.01081388  0.89226266     0.44170
Cu1347     Cu  0.67238027  0.07883363  0.87536656     0.41990
Cu1348     Cu  0.73885674  0.05396064  0.85637752     0.43880
N1349       N  0.73234709  0.99886180  0.87988698    -0.34340
N1350       N  0.74891800  0.01497429  0.86679579    -0.28590
C1351       C  0.77203389  0.00179596  0.86185797    -0.04690
C1352       C  0.76991642  0.97600336  0.87231729     0.07520
C1353       C  0.74442086  0.97494388  0.88369386     0.01320
H1354       H  0.78903326  0.01038066  0.85128459     0.08970
H1355       H  0.73543150  0.95836559  0.89455235     0.08050
N1356       N  0.72384126  0.09121400  0.84553109    -0.35790
N1357       N  0.69963248  0.10030897  0.85184198    -0.27970
C1358       C  0.69628197  0.12471523  0.84052781    -0.03210
C1359       C  0.71950549  0.13127445  0.82632838     0.05400
C1360       C  0.73654534  0.10950800  0.83025508     0.03500
H1361       H  0.67809087  0.13657985  0.84224474     0.08600
H1362       H  0.75686865  0.10695813  0.82291460     0.07440
N1363       N  0.89881314  0.65042652  0.04975370    -0.26950
N1364       N  0.90688600  0.66019429  0.02635055    -0.34810
C1365       C  0.92261359  0.64202060  0.01400446     0.01390
C1366       C  0.92491710  0.61961245  0.03043604     0.07410
C1367       C  0.90936776  0.62564546  0.05292041    -0.05690
H1368       H  0.93120890  0.64495870  0.99421798     0.08080
H1369       H  0.90616585  0.61311798  0.07044701     0.09280
Cu1370     Cu  0.89665757  0.69758874  0.01141878     0.44170
Cu1371     Cu  0.87389178  0.67154093  0.07605257     0.41990
Cu1372     Cu  0.85450754  0.73853086  0.05235499     0.43880
N1373       N  0.88326585  0.73504232  0.99946156    -0.34340
N1374       N  0.86748316  0.75022234  0.01453415    -0.28590
C1375       C  0.86181470  0.77304230  0.00114878    -0.04690
C1376       C  0.87461790  0.77215755  0.97630636     0.07520
C1377       C  0.88816042  0.74772880  0.97607966     0.01320
H1378       H  0.84900238  0.78890057  0.00885235     0.08970
H1379       H  0.90095416  0.73973949  0.96036057     0.08050
N1380       N  0.84348893  0.72254858  0.08922905    -0.35790
N1381       N  0.85004333  0.69826023  0.09787380    -0.27970
C1382       C  0.83915205  0.69449859  0.12243433    -0.03210
C1383       C  0.82513757  0.71764688  0.12972781     0.05400
C1384       C  0.82845516  0.73489199  0.10800583     0.03500
H1385       H  0.84113896  0.67604491  0.13375476     0.08600
H1386       H  0.82075616  0.75513991  0.10588847     0.07440
C1387       C  0.26511358  0.75797592  0.77230875     0.02620
C1388       C  0.27277497  0.73526434  0.75704205     0.02620
C1389       C  0.25750679  0.72765193  0.73428848     0.02620
C1390       C  0.23478429  0.74295715  0.72667196     0.02620
C1391       C  0.22716775  0.76571413  0.74194513     0.02620
C1392       C  0.24242813  0.77328608  0.76468834     0.02620
C1393       C  0.17725814  0.77008109  0.74202804    -0.20970
C1394       C  0.20236005  0.78078935  0.73494941    -0.09010
C1395       C  0.20364785  0.80569475  0.72166529     0.29850
C1396       C  0.17996960  0.81979513  0.71577654    -0.20970
C1397       C  0.15477928  0.80939586  0.72340430    -0.09020
C1398       C  0.15361782  0.78423646  0.73641993     0.29850
F1399       F  0.12964677  0.77300776  0.74321327    -0.19540
H1400       H  0.17605381  0.75077408  0.75209966     0.18220
H1401       H  0.18135752  0.83912691  0.70580008     0.18230
F1402       F  0.22777489  0.81635203  0.71451986    -0.19530
C1403       C  0.80428681  0.90763761  0.87389379    -0.20970
C1404       C  0.83153629  0.91499208  0.87241060    -0.09010
C1405       C  0.83834122  0.94240553  0.87074232     0.29850
C1406       C  0.81818698  0.96202136  0.87058784    -0.20970
C1407       C  0.79087533  0.95475357  0.87216234    -0.09020
C1408       C  0.78408436  0.92725141  0.87366963     0.29850
F1409       F  0.75799789  0.91914487  0.87413143    -0.19540
H1410       H  0.79862937  0.88659627  0.87484717     0.18220
H1411       H  0.82406999  0.98298618  0.86975700     0.18230
F1412       F  0.86451392  0.95029225  0.87010250    -0.19530
C1413       C  0.87822736  0.80647295  0.90797887    -0.20970
C1414       C  0.87296688  0.83340054  0.91484183    -0.09010
C1415       C  0.86809386  0.83996154  0.94200000     0.29850
C1416       C  0.86853668  0.81992488  0.96174141    -0.20970
C1417       C  0.87400100  0.79299635  0.95492984    -0.09020
C1418       C  0.87875854  0.78644188  0.92770996     0.29850
F1419       F  0.88317065  0.76064775  0.91986398    -0.19540
H1420       H  0.88161431  0.80083527  0.88715742     0.18220
H1421       H  0.86512278  0.82567568  0.98250959     0.18230
F1422       F  0.86379384  0.86585478  0.94965853    -0.19530
C1423       C  0.90758134  0.87661130  0.80555658    -0.20970
C1424       C  0.91482555  0.87445416  0.83280864    -0.09010
C1425       C  0.94221063  0.87198576  0.83963362     0.29850
C1426       C  0.96185762  0.87151270  0.81946345    -0.20970
C1427       C  0.95462528  0.87369211  0.79217743    -0.09020
C1428       C  0.92720360  0.87620538  0.78539029     0.29850
F1429       F  0.91916054  0.87734013  0.75928842    -0.19540
H1430       H  0.88658024  0.87813795  0.79983395     0.18220
H1431       H  0.98281645  0.86990253  0.82526995     0.18230
F1432       F  0.95004913  0.87076300  0.86581149    -0.19530
C1433       C  0.88434265  0.33978064  0.05762824    -0.20970
C1434       C  0.87482666  0.33363013  0.08349492    -0.09010
C1435       C  0.86571736  0.30750679  0.08919716     0.29850
C1436       C  0.86643339  0.28765623  0.06921944    -0.20970
C1437       C  0.87580140  0.29381559  0.04326986    -0.09020
C1438       C  0.88480467  0.32001416  0.03756299     0.29850
F1439       F  0.89479448  0.32621555  0.01287125    -0.19540
H1440       H  0.89158282  0.35984601  0.05309575     0.18220
H1441       H  0.85923468  0.26759522  0.07383129     0.18230
F1442       F  0.85574352  0.30140725  0.11391999    -0.19530
C1443       C  0.93039087  0.37987989  0.21204281    -0.20970
C1444       C  0.95740121  0.37598613  0.20451357    -0.09010
C1445       C  0.96353133  0.37160407  0.17716383     0.29850
C1446       C  0.94298510  0.37109048  0.15790546    -0.20970
C1447       C  0.91596866  0.37490062  0.16545245    -0.09020
C1448       C  0.90983604  0.37921461  0.19280273     0.29850
F1449       F  0.88392132  0.38199876  0.20108543    -0.19540
H1450       H  0.92506071  0.38292357  0.23298604     0.18220
H1451       H  0.94825915  0.36813832  0.13692418     0.18230
F1452       F  0.98939931  0.36868845  0.16881902    -0.19530
C1453       C  0.84098091  0.44316264  0.12750291    -0.20970
C1454       C  0.83365909  0.41611188  0.12372955    -0.09010
C1455       C  0.80633225  0.40972591  0.11970078     0.29850
C1456       C  0.78688653  0.43008272  0.11930575    -0.20970
C1457       C  0.79419626  0.45712954  0.12319356    -0.09020
C1458       C  0.82152569  0.46350402  0.12726110     0.29850
F1459       F  0.82967141  0.48941901  0.13013603    -0.19540
H1460       H  0.86192234  0.44862683  0.13023721     0.18220
H1461       H  0.76597741  0.42457412  0.11647903     0.18230
F1462       F  0.79827724  0.38374992  0.11695545    -0.19530
C1463       C  0.17841094  0.31581189  0.28836955    -0.20970
C1464       C  0.15352689  0.30598626  0.27900189    -0.09010
C1465       C  0.15307859  0.28229645  0.26345477     0.29850
C1466       C  0.17703586  0.26924261  0.25683556    -0.20970
C1467       C  0.20189781  0.27969335  0.26509703    -0.09020
C1468       C  0.20251391  0.30281813  0.28135694     0.29850
F1469       F  0.22632716  0.31269923  0.29042489    -0.19540
H1470       H  0.17923961  0.33391743  0.30051567     0.18220
H1471       H  0.17626708  0.25106674  0.24478162     0.18230
F1472       F  0.12946986  0.27143724  0.25497895    -0.19530
C1473       C  0.28384941  0.68024065  0.68038227    -0.20970
C1474       C  0.27687376  0.65507017  0.69124445    -0.09010
C1475       C  0.26407955  0.65402023  0.71654768     0.29850
C1476       C  0.25806757  0.67773318  0.73041293    -0.20970
C1477       C  0.26455131  0.70280118  0.71928866    -0.09020
C1478       C  0.27757757  0.70399337  0.69420996     0.29850
F1479       F  0.28418884  0.72808809  0.68317219    -0.19540
H1480       H  0.29363471  0.68153666  0.66092016     0.18220
H1481       H  0.24821714  0.67660558  0.74986478     0.18230
F1482       F  0.25792162  0.63009321  0.72820270    -0.19530
C1483       C  0.22910802  0.24489687  0.32224600    -0.20970
C1484       C  0.21969156  0.23502129  0.29757896    -0.09010
C1485       C  0.19699798  0.21818742  0.29707462     0.29850
C1486       C  0.18352874  0.21189561  0.32103878    -0.20970
C1487       C  0.19259634  0.22219323  0.34584424    -0.09020
C1488       C  0.21586437  0.23847351  0.34621732     0.29850
F1489       F  0.22635145  0.24763578  0.36973826    -0.19540
H1490       H  0.24692148  0.25747255  0.32289171     0.18220
H1491       H  0.16575628  0.19931251  0.32010701     0.18230
F1492       F  0.18786248  0.20794172  0.27342981    -0.19530
C1493       C  0.10007275  0.32418163  0.57324949    -0.20970
C1494       C  0.12468834  0.33448632  0.58283117    -0.09010
C1495       C  0.14887961  0.32435545  0.57184131     0.29850
C1496       C  0.14824590  0.30487227  0.55150970    -0.20970
C1497       C  0.12366173  0.29444967  0.54232636    -0.09020
C1498       C  0.09952372  0.30415429  0.55346106     0.29850
F1499       F  0.07535700  0.29489397  0.54465350    -0.19540
H1500       H  0.08111601  0.33181673  0.58088503     0.18220
H1501       H  0.16707819  0.29734346  0.54343968     0.18230
F1502       F  0.17320246  0.33244679  0.58134361    -0.19530
C1503       C  0.19220999  0.41020277  0.61886778    -0.20970
C1504       C  0.16534964  0.41718536  0.62437676    -0.09010
C1505       C  0.15906672  0.44424408  0.63001028     0.29850
C1506       C  0.17936119  0.46374990  0.63025320    -0.20970
C1507       C  0.20622863  0.45676567  0.62467975    -0.09020
C1508       C  0.21247430  0.42969316  0.61900053     0.29850
F1509       F  0.23823191  0.42175282  0.61446737    -0.19540
H1510       H  0.19762344  0.38943961  0.61490455     0.18220
H1511       H  0.17391323  0.48446379  0.63434763     0.18230
F1512       F  0.13323873  0.45201055  0.63453742    -0.19530
C1513       C  0.03827086  0.37080899  0.68109992    -0.20970
C1514       C  0.04567948  0.37352812  0.70830347    -0.09010
C1515       C  0.07320626  0.37602937  0.71479627     0.29850
C1516       C  0.09266741  0.37612802  0.69441516    -0.20970
C1517       C  0.08515845  0.37353317  0.66727056    -0.09020
C1518       C  0.05772971  0.37083861  0.66077510     0.29850
F1519       F  0.04963356  0.36913731  0.63469759    -0.19540
H1520       H  0.01729246  0.36919996  0.67539876     0.18220
H1521       H  0.11371843  0.37791144  0.69986726     0.18230
F1522       F  0.08151811  0.37764529  0.74078383    -0.19530
C1523       C  0.03359758  0.95042058  0.54720964    -0.20970
C1524       C  0.01340211  0.97012417  0.54793742    -0.09010
C1525       C  0.99969111  0.97515984  0.57208019     0.29850
C1526       C  0.00602438  0.96053969  0.59522117    -0.20970
C1527       C  0.02618047  0.94060163  0.59474119    -0.09020
C1528       C  0.04003061  0.93572627  0.57039830     0.29850
F1529       F  0.05911145  0.91625481  0.56863583    -0.19540
H1530       H  0.04417845  0.94628168  0.52856791     0.18220
H1531       H  0.99519752  0.96506384  0.61360384     0.18230
F1532       F  0.98017368  0.99428100  0.57321735    -0.19530
C1533       C  0.01916308  0.07337656  0.49495510    -0.20970
C1534       C  0.02927102  0.04848421  0.48644083    -0.09010
C1535       C  0.05296232  0.04753884  0.47104995     0.29850
C1536       C  0.06651955  0.07137590  0.46454222    -0.20970
C1537       C  0.05665243  0.09642769  0.47338546    -0.09020
C1538       C  0.03261511  0.09718228  0.48849938     0.29850
F1539       F  0.02159177  0.12090655  0.49641292    -0.19540
H1540       H  0.00066953  0.07431960  0.50651464     0.18220
H1541       H  0.08494187  0.07019468  0.45292211     0.18230
F1542       F  0.06282705  0.02361463  0.46223774    -0.19530
C1543       C  0.26079925  0.26135118  0.17537161    -0.20970
C1544       C  0.27657893  0.26209005  0.19892737    -0.09010
C1545       C  0.30322110  0.27157261  0.19712919     0.29850
C1546       C  0.31373833  0.27999401  0.17234357    -0.20970
C1547       C  0.29791665  0.27933917  0.14891486    -0.09020
C1548       C  0.27123403  0.27006393  0.15063401     0.29850
F1549       F  0.25492796  0.27053156  0.12867592    -0.19540
H1550       H  0.24002125  0.25477671  0.17638257     0.18220
H1551       H  0.33433371  0.28711705  0.17145810     0.18230
F1552       F  0.31868564  0.27405754  0.21946755    -0.19530
C1553       C  0.39932191  0.17613261  0.92779064    -0.20970
C1554       C  0.37498985  0.16724595  0.91625980    -0.09010
C1555       C  0.35067646  0.17898954  0.92507590     0.29850
C1556       C  0.35077861  0.19840292  0.94546523    -0.20970
C1557       C  0.37504835  0.20713703  0.95700371    -0.09020
C1558       C  0.39943141  0.19603174  0.94778289     0.29850
F1559       F  0.42329526  0.20365988  0.95872343    -0.19540
H1560       H  0.41831769  0.16730291  0.92168062     0.18220
H1561       H  0.33179903  0.20707417  0.95185257     0.18230
F1562       F  0.32680863  0.17235553  0.91351407    -0.19530
C1563       C  0.44387571  0.12754405  0.84213276    -0.20970
C1564       C  0.41677746  0.12402208  0.83491195    -0.09010
C1565       C  0.41022061  0.11993272  0.80762660     0.29850
C1566       C  0.43048748  0.11939164  0.78806252    -0.20970
C1567       C  0.45761650  0.12305050  0.79525569    -0.09020
C1568       C  0.46414354  0.12699141  0.82259789     0.29850
F1569       F  0.49012802  0.12944012  0.83068992    -0.19540
H1570       H  0.44941159  0.13028983  0.86307291     0.18220
H1571       H  0.42484968  0.11660232  0.76716792     0.18230
F1572       F  0.38416937  0.11721942  0.79976345    -0.19530
C1573       C  0.20958733  0.82257933  0.81302795    -0.20970
C1574       C  0.22411237  0.84633043  0.80761177    -0.09010
C1575       C  0.24434851  0.84564139  0.78761504     0.29850
C1576       C  0.25015061  0.82174935  0.77402481    -0.20970
C1577       C  0.23572788  0.79824932  0.77960872    -0.09020
C1578       C  0.21529502  0.79872250  0.79910319     0.29850
F1579       F  0.20114004  0.77606610  0.80482683    -0.19540
H1580       H  0.19401415  0.82229749  0.82827975     0.18220
H1581       H  0.26580845  0.82159903  0.75881031     0.18230
F1582       F  0.25815677  0.86805946  0.78044855    -0.19530
C1583       C  0.30473112  0.05240777  0.90103848    -0.20970
C1584       C  0.29412327  0.04318372  0.87655495    -0.09010
C1585       C  0.30401347  0.05372273  0.85226671     0.29850
C1586       C  0.32392901  0.07357771  0.85257178    -0.20970
C1587       C  0.33487224  0.08281263  0.87706064    -0.09020
C1588       C  0.32525565  0.07167259  0.90137779     0.29850
F1589       F  0.33622824  0.07863350  0.92543998    -0.19540
H1590       H  0.29759231  0.04412202  0.91992235     0.18220
H1591       H  0.33054051  0.08198957  0.83356461     0.18230
F1592       F  0.29380208  0.04545580  0.82827144    -0.19530
C1593       C  0.20140524  0.71440462  0.70195403    -0.20970
C1594       C  0.21963349  0.73590845  0.70195608    -0.09010
C1595       C  0.22359031  0.75079059  0.67835266     0.29850
C1596       C  0.20953799  0.74417702  0.65495804    -0.20970
C1597       C  0.19103862  0.72268694  0.65463243    -0.09020
C1598       C  0.18708256  0.70782251  0.67856545     0.29850
F1599       F  0.16902318  0.68740017  0.67979063    -0.19540
H1600       H  0.19813649  0.70288512  0.72018943     0.18220
H1601       H  0.21348969  0.75588098  0.63703435     0.18230
F1602       F  0.24135706  0.77155187  0.67788520    -0.19530
C1603       C  0.28202814  0.20328800  0.30162990    -0.20970
C1604       C  0.26387311  0.20197455  0.28002967    -0.09010
C1605       C  0.25147037  0.17741620  0.27382193     0.29850
C1606       C  0.25694462  0.15452566  0.28920693    -0.20970
C1607       C  0.27503090  0.15561210  0.31102874    -0.09020
C1608       C  0.28775343  0.18030301  0.31696336     0.29850
F1609       F  0.30489626  0.18260130  0.33811727    -0.19540
H1610       H  0.29143905  0.22225456  0.30684121     0.18220
H1611       H  0.24703645  0.13586872  0.28386726     0.18230
F1612       F  0.23377135  0.17571062  0.25304737    -0.19530
C1613       C  0.19144031  0.90809360  0.37634239    -0.20970
C1614       C  0.16416971  0.91527093  0.37486014    -0.09010
C1615       C  0.15714100  0.94259433  0.37256232     0.29850
C1616       C  0.17719532  0.96233362  0.37182466    -0.20970
C1617       C  0.20455251  0.95518710  0.37339004    -0.09020
C1618       C  0.21149244  0.92775633  0.37545746     0.29850
F1619       F  0.23761077  0.91972111  0.37570865    -0.19540
H1620       H  0.19723920  0.88709966  0.37762475     0.18220
H1621       H  0.17125089  0.98326365  0.37048994     0.18230
F1622       F  0.13089499  0.95023531  0.37168335    -0.19530
C1623       C  0.09992075  0.82252881  0.42624523    -0.20970
C1624       C  0.12455067  0.83194854  0.41584878    -0.09010
C1625       C  0.14874446  0.82111480  0.42606981     0.29850
C1626       C  0.14812531  0.80183925  0.44656990    -0.20970
C1627       C  0.12349788  0.79238411  0.45663160    -0.09020
C1628       C  0.09935018  0.80273068  0.44620231     0.29850
F1629       F  0.07521020  0.79436712  0.45593636    -0.19540
H1630       H  0.08099963  0.83074401  0.41916094     0.18220
H1631       H  0.16692887  0.79376699  0.45414779     0.18230
F1632       F  0.17297214  0.82840926  0.41571457    -0.19530
C1633       C  0.07044116  0.87564316  0.28572628    -0.20970
C1634       C  0.04326804  0.87228711  0.29289274    -0.09010
C1635       C  0.03658811  0.86873455  0.32024619     0.29850
C1636       C  0.05676001  0.86847717  0.33984385    -0.20970
C1637       C  0.08387465  0.87190166  0.33264934    -0.09020
C1638       C  0.09059945  0.87539400  0.30535289     0.29850
F1639       F  0.11669340  0.87793615  0.29757524    -0.19540
H1640       H  0.07619085  0.87807626  0.26482273     0.18220
H1641       H  0.05112985  0.86616277  0.36081064     0.18230
F1642       F  0.01056924  0.86650125  0.32829861    -0.19530
C1643       C  0.96411392  0.90481757  0.51172750    -0.20970
C1644       C  0.94048664  0.90560086  0.52736702    -0.09010
C1645       C  0.93103837  0.93071081  0.53671226     0.29850
C1646       C  0.94505785  0.95434315  0.53048563    -0.20970
C1647       C  0.96851952  0.95331814  0.51483293    -0.09020
C1648       C  0.97801590  0.92843069  0.50551925     0.29850
F1649       F  0.00075596  0.92704480  0.49038261    -0.19540
H1650       H  0.97204118  0.88585902  0.50443221     0.18220
H1651       H  0.93757860  0.97349318  0.53778022     0.18230
F1652       F  0.90787893  0.93264056  0.55109096    -0.19530
C1653       C  0.89955670  0.67563442  0.42702034    -0.20970
C1654       C  0.87474442  0.66676704  0.41654260    -0.09010
C1655       C  0.85078791  0.67843306  0.42639542     0.29850
C1656       C  0.85179131  0.69796052  0.44665464    -0.20970
C1657       C  0.87659702  0.70684867  0.45679967    -0.09020
C1658       C  0.90053033  0.69571711  0.44669656     0.29850
F1659       F  0.92481010  0.70356548  0.45651657    -0.19540
H1660       H  0.91830066  0.66677656  0.42022157     0.18220
H1661       H  0.83316119  0.70663722  0.45401423     0.18230
F1662       F  0.82645189  0.67168241  0.41592231    -0.19530
C1663       C  0.94254729  0.62669575  0.34232788    -0.20970
C1664       C  0.91542897  0.62485800  0.33457096    -0.09010
C1665       C  0.90898122  0.62302799  0.30709232     0.29850
C1666       C  0.92939964  0.62320736  0.28775442    -0.20970
C1667       C  0.95661057  0.62513957  0.29541440    -0.09020
C1668       C  0.96301782  0.62670480  0.32301606     0.29850
F1669       F  0.98897462  0.62746289  0.33151523    -0.19540
H1670       H  0.94788647  0.62777431  0.36347283     0.18220
H1671       H  0.92377579  0.62230864  0.26670244     0.18230
F1672       F  0.88291701  0.62190335  0.29889602    -0.19530
C1673       C  0.84133015  0.55649585  0.37472419    -0.20970
C1674       C  0.83366374  0.58363954  0.37633145    -0.09010
C1675       C  0.80618833  0.59015691  0.37834293     0.29850
C1676       C  0.78680158  0.56978372  0.37876673    -0.20970
C1677       C  0.79440314  0.54255865  0.37716027    -0.09020
C1678       C  0.82197572  0.53609098  0.37524982     0.29850
F1679       F  0.83042936  0.51011872  0.37475841    -0.19540
H1680       H  0.86243501  0.55107502  0.37350719     0.18220
H1681       H  0.76576512  0.57540910  0.37991007     0.18230
F1682       F  0.79803962  0.61624424  0.37914494    -0.19530
C1683       C  0.59018326  0.87901256  0.19283133    -0.20970
C1684       C  0.58324459  0.87600186  0.16556527    -0.09010
C1685       C  0.55591062  0.87355319  0.15851872     0.29850
C1686       C  0.53602185  0.87410112  0.17846184    -0.20970
C1687       C  0.54294504  0.87732570  0.20573089    -0.09020
C1688       C  0.57031570  0.87964803  0.21276159     0.29850
F1689       F  0.57804842  0.88166358  0.23890679    -0.19540
H1690       H  0.61112794  0.88051774  0.19875819     0.18220
H1691       H  0.51511056  0.87253851  0.17247184     0.18230
F1692       F  0.54834418  0.87149236  0.13231186    -0.19530
C1693       C  0.63067915  0.84060975  0.05722970    -0.20970
C1694       C  0.62596157  0.83369230  0.08425902    -0.09010
C1695       C  0.62183580  0.80647538  0.09090446     0.29850
C1696       C  0.62229508  0.78672996  0.07084064    -0.20970
C1697       C  0.62706211  0.79359875  0.04378985    -0.09020
C1698       C  0.63122843  0.82085819  0.03715358     0.29850
F1699       F  0.63500082  0.82868475  0.01124372    -0.19540
H1700       H  0.63355362  0.86146815  0.05156225     0.18220
H1701       H  0.61939907  0.76592751  0.07663817     0.18230
F1702       F  0.61818692  0.79880297  0.11689774    -0.19530
C1703       C  0.71389651  0.92925797  0.12374660    -0.20970
C1704       C  0.70667250  0.95645910  0.12670338    -0.09010
C1705       C  0.67924747  0.96319286  0.12934420     0.29850
C1706       C  0.65961740  0.94305281  0.12906922    -0.20970
C1707       C  0.66685527  0.91587315  0.12613688    -0.09020
C1708       C  0.69425581  0.90911503  0.12357145     0.29850
F1709       F  0.70213584  0.88300502  0.12166565    -0.19540
H1710       H  0.73485627  0.92347354  0.12203030     0.18220
H1711       H  0.63861744  0.94875755  0.13070602     0.18230
F1712       F  0.67120725  0.98923540  0.13126732    -0.19530
C1713       C  0.20298376  0.69979620  0.21745646    -0.20970
C1714       C  0.20163432  0.72086905  0.23623500    -0.09010
C1715       C  0.17695763  0.72711313  0.24841600     0.29850
C1716       C  0.15398455  0.71216293  0.24224102    -0.20970
C1717       C  0.15512139  0.69082131  0.22362268    -0.09020
C1718       C  0.17989122  0.68486272  0.21107097     0.29850
F1719       F  0.18206908  0.66407865  0.19344644    -0.19540
H1720       H  0.22200528  0.69478326  0.20800167     0.18220
H1721       H  0.13519270  0.71748490  0.25195033     0.18230
F1722       F  0.17514308  0.74768027  0.26635244    -0.19530
C1723       C  0.32042649  0.77517423  0.25145722    -0.20970
C1724       C  0.29678728  0.78154341  0.26543116    -0.09010
C1725       C  0.29730084  0.80169580  0.28524668     0.29850
C1726       C  0.32129471  0.81543857  0.29080615    -0.20970
C1727       C  0.34504492  0.80941341  0.27652349    -0.09020
C1728       C  0.34437075  0.78887053  0.25688526     0.29850
F1729       F  0.36690476  0.78142115  0.24333117    -0.19540
H1730       H  0.32027966  0.75945730  0.23629889     0.18220
H1731       H  0.32113044  0.83117590  0.30591344     0.18230
F1732       F  0.27455060  0.80829645  0.29889521    -0.19530
C1733       C  0.19330498  0.59216181  0.87741282    -0.20970
C1734       C  0.16609420  0.58517008  0.87437157    -0.09010
C1735       C  0.15917599  0.55791385  0.87107740     0.29850
C1736       C  0.17921820  0.53812452  0.87080400    -0.20970
C1737       C  0.20649572  0.54508145  0.87386342    -0.09020
C1738       C  0.21335894  0.57242655  0.87706122     0.29850
F1739       F  0.23943837  0.58034753  0.87893181    -0.19540
H1740       H  0.19909454  0.61308447  0.87956224     0.18220
H1741       H  0.17328529  0.51726637  0.86861454     0.18230
F1742       F  0.13300486  0.55032912  0.86883135    -0.19530
C1743       C  0.03871617  0.63231065  0.81844359    -0.20970
C1744       C  0.04599592  0.62944121  0.79121954    -0.09010
C1745       C  0.07343719  0.62630149  0.78462728     0.29850
C1746       C  0.09295349  0.62581622  0.80491857    -0.20970
C1747       C  0.08559706  0.62864697  0.83207439    -0.09020
C1748       C  0.05824705  0.63188817  0.83869280     0.29850
F1749       F  0.05030104  0.63384751  0.86480292    -0.19540
H1750       H  0.01778966  0.63439668  0.82420220     0.18220
H1751       H  0.11394868  0.62363575  0.79937714     0.18230
F1752       F  0.08164065  0.62450180  0.75861353    -0.19530
C1753       C  0.22813986  0.75468213  0.17873098    -0.20970
C1754       C  0.21919971  0.76556018  0.20315193    -0.09010
C1755       C  0.19670292  0.78262786  0.20346049     0.29850
C1756       C  0.18316308  0.78852966  0.17944150    -0.20970
C1757       C  0.19185934  0.77740173  0.15483539    -0.09020
C1758       C  0.21473105  0.76054662  0.15473160     0.29850
F1759       F  0.22470799  0.75027336  0.13144357    -0.19540
H1760       H  0.24567631  0.74169556  0.17830510     0.18220
H1761       H  0.16562909  0.80146994  0.18018519     0.18230
F1762       F  0.18785034  0.79345051  0.22696945    -0.19530
C1763       C  0.14924579  0.69827363  0.94677550    -0.20970
C1764       C  0.12454221  0.70793761  0.95651104    -0.09010
C1765       C  0.10048592  0.69775291  0.94569428     0.29850
C1766       C  0.10122483  0.67793420  0.92572224    -0.20970
C1767       C  0.12593525  0.66831982  0.91564811    -0.09020
C1768       C  0.15004145  0.67898046  0.92625388     0.29850
F1769       F  0.17437768  0.67151780  0.91625346    -0.19540
H1770       H  0.16799938  0.70619346  0.95462633     0.18220
H1771       H  0.08234635  0.66986180  0.91837159     0.18230
F1772       F  0.07624230  0.70627741  0.95505328    -0.19530
C1773       C  0.78291046  0.20369076  0.19783791    -0.20970
C1774       C  0.76493232  0.20288731  0.21958111    -0.09010
C1775       C  0.75334781  0.17833951  0.22718336     0.29850
C1776       C  0.75961575  0.15483213  0.21309012    -0.20970
C1777       C  0.77761391  0.15539130  0.19119247    -0.09020
C1778       C  0.78931781  0.18014300  0.18371746     0.29850
F1779       F  0.80615102  0.18187469  0.16225793    -0.19540
H1780       H  0.79176224  0.22262880  0.19167244     0.18220
H1781       H  0.75046202  0.13612828  0.21949350     0.18230
F1782       F  0.73588449  0.17720007  0.24820665    -0.19530
C1783       C  0.74911463  0.32162336  0.27451926    -0.20970
C1784       C  0.73501046  0.29787714  0.27994414    -0.09010
C1785       C  0.71502184  0.29776548  0.29992096     0.29850
C1786       C  0.70950403  0.32124055  0.31453827    -0.20970
C1787       C  0.72396276  0.34508029  0.30951948    -0.09020
C1788       C  0.74367710  0.34507182  0.28903060     0.29850
F1789       F  0.75737339  0.36775773  0.28246396    -0.19540
H1790       H  0.76445753  0.32191813  0.25898947     0.18220
H1791       H  0.69433226  0.32056818  0.33019158     0.18230
F1792       F  0.70131474  0.27483776  0.30563844    -0.19530
C1793       C  0.25889894  0.34603354  0.78667459    -0.20970
C1794       C  0.27599318  0.34478073  0.80924910    -0.09010
C1795       C  0.28738530  0.31978108  0.81642541     0.29850
C1796       C  0.28140911  0.29663591  0.80145607    -0.20970
C1797       C  0.26425089  0.29811326  0.77909579    -0.09020
C1798       C  0.25314801  0.32295400  0.77167072     0.29850
F1799       F  0.23648611  0.32476019  0.75006067    -0.19540
H1800       H  0.25004022  0.36495435  0.78047266     0.18220
H1801       H  0.28993534  0.27746899  0.80742158     0.18230
F1802       F  0.30345243  0.31741344  0.83840106    -0.19530
C1803       C  0.25958785  0.84715286  0.21460589    -0.20970
C1804       C  0.27600436  0.84592269  0.19152336    -0.09010
C1805       C  0.28624983  0.82073163  0.18329349     0.29850
C1806       C  0.28001327  0.79744320  0.19789271    -0.20970
C1807       C  0.26356633  0.79893081  0.22079053    -0.09020
C1808       C  0.25344159  0.82390451  0.22912643     0.29850
F1809       F  0.23745421  0.82571351  0.25124936    -0.19540
H1810       H  0.25159703  0.86618927  0.22161786     0.18220
H1811       H  0.28779469  0.77817186  0.19123933     0.18230
F1812       F  0.30147528  0.81835893  0.16071669    -0.19530
C1813       C  0.17767849  0.07570728  0.10196626    -0.20970
C1814       C  0.16731330  0.08599601  0.12628914    -0.09010
C1815       C  0.17766359  0.07601808  0.15081655     0.29850
C1816       C  0.19716873  0.05568312  0.15078400    -0.20970
C1817       C  0.20740860  0.04561649  0.12644931    -0.09020
C1818       C  0.19773666  0.05600258  0.10199614     0.29850
F1819       F  0.20691320  0.04637791  0.07808414    -0.19540
H1820       H  0.16988973  0.08254576  0.08277422     0.18220
H1821       H  0.20475528  0.04819795  0.16982626     0.18230
F1822       F  0.16960400  0.08635066  0.17482803    -0.19530
C1823       C  0.21212812  0.25768561  0.84396109    -0.20970
C1824       C  0.19186060  0.27751078  0.84406361    -0.09010
C1825       C  0.18578415  0.29095358  0.81977859     0.29850
C1826       C  0.19976109  0.28458806  0.79612450    -0.20970
C1827       C  0.21982475  0.26475843  0.79627984    -0.09020
C1828       C  0.22597668  0.25135427  0.82031724     0.29850
F1829       F  0.24552144  0.23223625  0.82088059    -0.19540
H1830       H  0.21752798  0.24716760  0.86226717     0.18220
H1831       H  0.19481412  0.29496748  0.77758889     0.18230
F1832       F  0.16585508  0.30959451  0.81854530    -0.19530
C1833       C  0.13112144  0.17994962  0.03577483    -0.20970
C1834       C  0.12354777  0.20646040  0.04225170    -0.09010
C1835       C  0.11612891  0.21240514  0.06902117     0.29850
C1836       C  0.11627025  0.19223222  0.08861891    -0.20970
C1837       C  0.12380398  0.16575794  0.08210283    -0.09020
C1838       C  0.13121635  0.15977618  0.05539233     0.29850
F1839       F  0.13780674  0.13428677  0.04800731    -0.19540
H1840       H  0.13658407  0.17460956  0.01534067     0.18220
H1841       H  0.11087724  0.19744920  0.10912659     0.18230
F1842       F  0.10952599  0.23778891  0.07665889    -0.19530
C1843       C  0.99922122  0.02521085  0.42949439    -0.20970
C1844       C  0.98497580  0.03126421  0.45302780    -0.09010
C1845       C  0.96540240  0.05159623  0.45265389     0.29850
C1846       C  0.96037195  0.06587924  0.42888205    -0.20970
C1847       C  0.97479229  0.06009526  0.40510413    -0.09020
C1848       C  0.99422669  0.03931203  0.40571212     0.29850
F1849       F  0.00812642  0.03197270  0.38337507    -0.19540
H1850       H  0.01427192  0.00940561  0.42959125     0.18220
H1851       H  0.94543272  0.08173305  0.42929463     0.18230
F1852       F  0.95150043  0.05787106  0.47535386    -0.19530
C1853       C  0.79764980  0.20151139  0.28461783    -0.20970
C1854       C  0.79804192  0.22088774  0.26413921    -0.09010
C1855       C  0.82214635  0.22632194  0.25056168     0.29850
C1856       C  0.84559412  0.21241304  0.25730712    -0.20970
C1857       C  0.84547403  0.19267741  0.27766644    -0.09020
C1858       C  0.82112047  0.18741576  0.29137948     0.29850
F1859       F  0.81960036  0.16822606  0.31073060    -0.19540
H1860       H  0.77905956  0.19718916  0.29519332     0.18220
H1861       H  0.86390105  0.21735351  0.24658554     0.18230
F1862       F  0.82299631  0.24524802  0.23085955    -0.19530
C1863       C  0.07113698  0.09901520  0.17358507    -0.20970
C1864       C  0.08053489  0.12360473  0.16304498    -0.09010
C1865       C  0.06935143  0.14780082  0.17297665     0.29850
C1866       C  0.04912406  0.14720823  0.19251861    -0.20970
C1867       C  0.04032244  0.12269957  0.20332226    -0.09020
C1868       C  0.05153882  0.09854762  0.19381674     0.29850
F1869       F  0.04309600  0.07447795  0.20361633    -0.19540
H1870       H  0.07886955  0.08003724  0.16612836     0.18220
H1871       H  0.04095643  0.16604432  0.19993074     0.18230
F1872       F  0.07868977  0.17213716  0.16478748    -0.19530
C1873       C  0.81799859  0.28579675  0.32025556    -0.20970
C1874       C  0.80748387  0.27781742  0.34532575    -0.09010
C1875       C  0.78266734  0.26408053  0.34608261     0.29850
C1876       C  0.76915004  0.25790460  0.32223260    -0.20970
C1877       C  0.77995348  0.26540231  0.29730457    -0.09020
C1878       C  0.80435606  0.27960457  0.29636736     0.29850
F1879       F  0.81489263  0.28745933  0.27239982    -0.19540
H1880       H  0.83701701  0.29639046  0.31910475     0.18220
H1881       H  0.75015787  0.24721228  0.32315431     0.18230
F1882       F  0.77105737  0.25715198  0.36983649    -0.19530
C1883       C  0.20555924  0.19483641  0.77695728    -0.20970
C1884       C  0.20304009  0.21952152  0.76349887    -0.09010
C1885       C  0.17741545  0.22889134  0.75624871     0.29850
C1886       C  0.15460521  0.21352452  0.76202005    -0.20970
C1887       C  0.15693853  0.18867582  0.77535848    -0.09020
C1888       C  0.18267712  0.17950564  0.78299724     0.29850
F1889       F  0.18585833  0.15530194  0.79525364    -0.19540
H1890       H  0.22530121  0.18735087  0.78245687     0.18220
H1891       H  0.13504601  0.22113329  0.75608739     0.18230
F1892       F  0.17457345  0.25265842  0.74306441    -0.19530
C1893       C  0.85111819  0.17465880  0.57259328    -0.20970
C1894       C  0.87599476  0.16480691  0.58200027    -0.09010
C1895       C  0.89992881  0.17546358  0.57102702     0.29850
C1896       C  0.89881983  0.19590167  0.55172204    -0.20970
C1897       C  0.87396573  0.20546993  0.54233688    -0.09020
C1898       C  0.85006968  0.19453576  0.55272604     0.29850
F1899       F  0.82570813  0.20374440  0.54439699    -0.19540
H1900       H  0.83236510  0.16725674  0.58090053     0.18220
H1901       H  0.91744309  0.20386469  0.54361280     0.18230
F1902       F  0.92439818  0.16564190  0.57825845    -0.19530
C1903       C  0.90950946  0.12199392  0.69268840    -0.20970
C1904       C  0.91699802  0.12534682  0.66561613    -0.09010
C1905       C  0.94434339  0.12929363  0.65931479     0.29850
C1906       C  0.96369196  0.12985658  0.67975755    -0.20970
C1907       C  0.95626347  0.12636691  0.70686220    -0.09020
C1908       C  0.92885389  0.12254398  0.71315360     0.29850
F1909       F  0.92050905  0.12012484  0.73906934    -0.19540
H1910       H  0.88853026  0.11932324  0.69805225     0.18220
H1911       H  0.98461914  0.13249837  0.67423943     0.18230
F1912       F  0.95250390  0.13177608  0.63332091    -0.19530
C1913       C  0.80879388  0.09007013  0.61980289    -0.20970
C1914       C  0.83574665  0.08241304  0.62373160    -0.09010
C1915       C  0.84177368  0.05509553  0.62810434     0.29850
C1916       C  0.82113675  0.03595078  0.62862481    -0.20970
C1917       C  0.79415744  0.04359725  0.62463351    -0.09020
C1918       C  0.78817246  0.07095394  0.62025566     0.29850
F1919       F  0.76237749  0.07949025  0.61731642    -0.19540
H1920       H  0.80362616  0.11105104  0.61681737     0.18220
H1921       H  0.82637836  0.01501868  0.63170505     0.18230
F1922       F  0.86764764  0.04677671  0.63112052    -0.19530
C1923       C  0.97626078  0.57093896  0.00134891    -0.20970
C1924       C  0.96933849  0.54696058  0.01435089    -0.09010
C1925       C  0.94771653  0.54666624  0.03251809     0.29850
C1926       C  0.93334288  0.57035683  0.03774209    -0.20970
C1927       C  0.94042005  0.59464373  0.02495384    -0.09020
C1928       C  0.96231025  0.59467800  0.00682224     0.29850
F1929       F  0.97098147  0.61768737  0.99496789    -0.19540
H1930       H  0.99286973  0.57130939  0.98719343     0.18220
H1931       H  0.91650835  0.56959278  0.05158022     0.18230
F1932       F  0.94042534  0.52345310  0.04494161    -0.19530
C1933       C  0.00490278  0.52341635  0.07415896    -0.20970
C1934       C  0.01354626  0.53214458  0.04875430    -0.09010
C1935       C  0.02535471  0.55775871  0.04621686     0.29850
C1936       C  0.02954417  0.57379045  0.06895915    -0.20970
C1937       C  0.02104136  0.56506133  0.09443317    -0.09020
C1938       C  0.00827777  0.53983597  0.09683053     0.29850
F1939       F  0.99963895  0.53073549  0.12111688    -0.19540
H1940       H  0.99512569  0.50404135  0.07629818     0.18220
H1941       H  0.03901247  0.59328954  0.06659891     0.18230
F1942       F  0.03289340  0.56725119  0.02172138    -0.19530
C1943       C  0.99524259  0.45884330  0.90730826    -0.20970
C1944       C  0.97487759  0.43910223  0.90738379    -0.09010
C1945       C  0.96072150  0.43426115  0.93155729     0.29850
C1946       C  0.96688966  0.44890223  0.95486130    -0.20970
C1947       C  0.98731692  0.46835235  0.95455118    -0.09020
C1948       C  0.00145074  0.47327818  0.93064225     0.29850
F1949       F  0.02114512  0.49221701  0.92988130    -0.19540
H1950       H  0.00633262  0.46338557  0.88910711     0.18220
H1951       H  0.95593066  0.44489492  0.97330308     0.18230
F1952       F  0.94151756  0.41492012  0.93306948    -0.19530
C1953       C  0.07225516  0.43116294  0.96929751    -0.20970
C1954       C  0.06080385  0.40564328  0.97352618    -0.09010
C1955       C  0.03466818  0.40383108  0.98433341     0.29850
C1956       C  0.02058027  0.42708563  0.99132390    -0.20970
C1957       C  0.03220149  0.45251468  0.98765634    -0.09020
C1958       C  0.05810498  0.45450653  0.97644428     0.29850
F1959       F  0.06961159  0.47896400  0.97246751    -0.19540
H1960       H  0.09236326  0.43298212  0.96103523     0.18220
H1961       H  0.00052146  0.42531147  0.99973126     0.18230
F1962       F  0.02246182  0.37960638  0.98761013    -0.19530
C1963       C  0.25727393  0.31788944  0.21887700    -0.20970
C1964       C  0.23669069  0.29858458  0.22034300    -0.09010
C1965       C  0.21312716  0.30259992  0.20530485     0.29850
C1966       C  0.21024276  0.32550257  0.18927598    -0.20970
C1967       C  0.23122129  0.34443551  0.18680339    -0.09020
C1968       C  0.25500784  0.34018010  0.20185400     0.29850
F1969       F  0.27667467  0.35659989  0.19950466    -0.19540
H1970       H  0.27584912  0.31486440  0.22993169     0.18220
H1971       H  0.19171376  0.32769515  0.17810529     0.18230
F1972       F  0.19362427  0.28355819  0.20449956    -0.19530
C1973       C  0.09349216  0.49702299  0.04898122    -0.20970
C1974       C  0.09734495  0.47119206  0.06001177    -0.09010
C1975       C  0.07603294  0.45246403  0.05770988     0.29850
C1976       C  0.05159851  0.45995610  0.04551836    -0.20970
C1977       C  0.04828753  0.48563792  0.03399337    -0.09020
C1978       C  0.06976557  0.50389559  0.03565180     0.29850
F1979       F  0.06864209  0.52795453  0.02291915    -0.19540
H1980       H  0.10919981  0.51201405  0.04954491     0.18220
H1981       H  0.03546841  0.44534374  0.04433141     0.18230
F1982       F  0.07868713  0.42678732  0.06655499    -0.19530
C1983       C  0.30740319  0.59293172  0.12908183    -0.20970
C1984       C  0.33444522  0.58640269  0.12415117    -0.09010
C1985       C  0.34163908  0.55962732  0.11880119     0.29850
C1986       C  0.32203931  0.53953757  0.11873169    -0.20970
C1987       C  0.29494721  0.54588100  0.12376296    -0.09020
C1988       C  0.28769408  0.57278809  0.12896527     0.29850
F1989       F  0.26182912  0.57944155  0.13484442    -0.19540
H1990       H  0.30168121  0.61354985  0.13336354     0.18220
H1991       H  0.32799822  0.51901538  0.11434322     0.18230
F1992       F  0.36757608  0.55305690  0.11312229    -0.19530
C1993       C  0.44756701  0.64914330  0.19615346    -0.20970
C1994       C  0.45687006  0.62453277  0.20635674    -0.09010
C1995       C  0.44637035  0.60040088  0.19601755     0.29850
C1996       C  0.42704915  0.60100057  0.17555471    -0.20970
C1997       C  0.41737042  0.62565145  0.16545147    -0.09020
C1998       C  0.42772265  0.64981185  0.17622732     0.29850
F1999       F  0.41805593  0.67411549  0.16830094    -0.19540
H2000       H  0.45518652  0.66795460  0.20416345     0.18220
H2001       H  0.41986735  0.58208472  0.16742053     0.18230
F2002       F  0.45539217  0.57623946  0.20506093    -0.19530
C2003       C  0.31835031  0.78558144  0.81950263    -0.20970
C2004       C  0.30835406  0.77720315  0.84462761    -0.09010
C2005       C  0.28376879  0.76313789  0.84574976     0.29850
C2006       C  0.26978397  0.75720938  0.82210893    -0.20970
C2007       C  0.28010388  0.76505368  0.79707641    -0.09020
C2008       C  0.30440499  0.77939488  0.79580900     0.29850
F2009       F  0.31458799  0.78728032  0.77169468    -0.19540
H2010       H  0.33724542  0.79638484  0.81818032     0.18220
H2011       H  0.25090423  0.74634040  0.82325351     0.18230
F2012       F  0.27291283  0.75564206  0.86969530    -0.19530
C2013       C  0.37342758  0.68029637  0.03533820    -0.20970
C2014       C  0.37751804  0.70737661  0.04251426    -0.09010
C2015       C  0.38188730  0.71384688  0.06981471     0.29850
C2016       C  0.38201542  0.69363249  0.08932727    -0.20970
C2017       C  0.37765695  0.66666067  0.08215503    -0.09020
C2018       C  0.37352040  0.66008996  0.05490651     0.29850
F2019       F  0.37012801  0.63410296  0.04711262    -0.19540
H2020       H  0.37040250  0.67464367  0.01448313     0.18220
H2021       H  0.38490296  0.69915836  0.11025623     0.18230
F2022       F  0.38497948  0.73972623  0.07798587    -0.19530
C2023       C  0.93149785  0.53531625  0.93286215    -0.20970
C2024       C  0.90654226  0.52433832  0.94058876    -0.09010
C2025       C  0.90542575  0.50782269  0.96368061     0.29850
C2026       C  0.92877642  0.50222188  0.97831445    -0.20970
C2027       C  0.95358940  0.51286730  0.97029397    -0.09020
C2028       C  0.95489737  0.52953528  0.94752365     0.29850
F2029       F  0.97879089  0.54010710  0.93950761    -0.19540
H2030       H  0.93299153  0.54800749  0.91520043     0.18220
H2031       H  0.92754857  0.48953280  0.99601914     0.18230
F2032       F  0.88173376  0.49763322  0.97268403    -0.19530
C2033       C  0.32139266  0.31575356  0.70960040    -0.20970
C2034       C  0.34515436  0.31025855  0.72408137    -0.09010
C2035       C  0.34485330  0.28948632  0.74345876     0.29850
C2036       C  0.32121503  0.27522324  0.74860686    -0.20970
C2037       C  0.29756813  0.28109517  0.73447471    -0.09020
C2038       C  0.29774100  0.30129022  0.71475478     0.29850
F2039       F  0.27497730  0.30720950  0.70082533    -0.19540
H2040       H  0.32094679  0.33157480  0.69462273     0.18220
H2041       H  0.32131638  0.25943328  0.76365840     0.18230
F2042       F  0.36744938  0.28233417  0.75703821    -0.19530
C2043       C  0.71242562  0.43155149  0.88164702    -0.20970
C2044       C  0.70529761  0.45869012  0.87791567    -0.09010
C2045       C  0.67790529  0.46525605  0.87432339     0.29850
C2046       C  0.65830994  0.44502706  0.87427159    -0.20970
C2047       C  0.66552229  0.41794343  0.87795273    -0.09020
C2048       C  0.69283241  0.41137184  0.88163186     0.29850
F2049       F  0.70071753  0.38533739  0.88435980    -0.19540
H2050       H  0.73330423  0.42577181  0.88408630     0.18220
H2051       H  0.63736316  0.45057898  0.87171645     0.18230
F2052       F  0.66981529  0.49120348  0.87162955    -0.19530
C2053       C  0.55756843  0.37291711  0.84237139    -0.20970
C2054       C  0.58475012  0.37542847  0.83504890    -0.09010
C2055       C  0.59146782  0.37794064  0.80766246     0.29850
C2056       C  0.57126569  0.37786113  0.78803932    -0.20970
C2057       C  0.54398190  0.37534126  0.79528833    -0.09020
C2058       C  0.53732956  0.37301560  0.82280808     0.29850
F2059       F  0.51132077  0.37168857  0.83106753    -0.19540
H2060       H  0.55196038  0.37134351  0.86341472     0.18220
H2061       H  0.57711465  0.37937308  0.76708514     0.18230
F2062       F  0.61759985  0.37973133  0.79980829    -0.19530
C2063       C  0.71310771  0.23865583  0.15422480    -0.20970
C2064       C  0.68932352  0.22340834  0.15590342    -0.09010
C2065       C  0.68078072  0.21394910  0.18125493     0.29850
C2066       C  0.69581704  0.21984519  0.20438117    -0.20970
C2067       C  0.71944191  0.23517825  0.20249335    -0.09020
C2068       C  0.72808083  0.24445186  0.17728644     0.29850
F2069       F  0.75086371  0.25938837  0.17508758    -0.19540
H2070       H  0.72025702  0.24599603  0.13497245     0.18220
H2071       H  0.68888782  0.21279373  0.22383255     0.18230
F2072       F  0.65745495  0.19995998  0.18386562    -0.19530
C2073       C  0.60061563  0.32339945  0.92710194    -0.20970
C2074       C  0.62516776  0.33417515  0.91782650    -0.09010
C2075       C  0.64942424  0.32396057  0.92859535     0.29850
C2076       C  0.64890438  0.30410180  0.94852856    -0.20970
C2077       C  0.62439604  0.29328875  0.95740210    -0.09020
C2078       C  0.60021085  0.30289773  0.94637616     0.29850
F2079       F  0.57614523  0.29310084  0.95487499    -0.19540
H2080       H  0.58159220  0.33102875  0.91966242     0.18220
H2081       H  0.66776167  0.29660972  0.95655731     0.18230
F2082       F  0.67371233  0.33235159  0.91927721    -0.19530
C2083       C  0.59262078  0.00453232  0.95669607    -0.20970
C2084       C  0.59363239  0.02744844  0.93999840    -0.09010
C2085       C  0.57074369  0.04432336  0.93879088     0.29850
C2086       C  0.54755878  0.03798344  0.95352519    -0.20970
C2087       C  0.54675257  0.01491852  0.96972647    -0.09020
C2088       C  0.56950090  0.99833823  0.97138367     0.29850
F2089       F  0.56937258  0.97618650  0.98738426    -0.19540
H2090       H  0.60976815  0.99127892  0.95869907     0.18220
H2091       H  0.53004978  0.05092142  0.95208855     0.18230
F2092       F  0.57025767  0.06658283  0.92302852    -0.19530
C2093       C  0.42846107  0.96531091  0.06797480    -0.20970
C2094       C  0.40336994  0.97386910  0.05801181    -0.09010
C2095       C  0.40247354  0.98843734  0.03367316     0.29850
C2096       C  0.42620721  0.99446848  0.01986631    -0.20970
C2097       C  0.45117900  0.98632225  0.03009693    -0.09020
C2098       C  0.45224812  0.97164526  0.05422860     0.29850
F2099       F  0.47626114  0.96348636  0.06442263    -0.19540
H2100       H  0.42970548  0.95417851  0.08668408     0.18220
H2101       H  0.42516858  0.00560121  0.00112938     0.18230
F2102       F  0.37866859  0.99630749  0.02279442    -0.19530
C2103       C  0.55592047  0.04456204  0.02739263    -0.20970
C2104       C  0.53039510  0.04716685  0.01554895    -0.09010
C2105       C  0.52041894  0.07285238  0.00943307     0.29850
C2106       C  0.53596006  0.09563150  0.01471752    -0.20970
C2107       C  0.56159356  0.09319637  0.02642173    -0.09020
C2108       C  0.57145372  0.06743371  0.03292479     0.29850
F2109       F  0.59647020  0.06428701  0.04348972    -0.19540
H2110       H  0.56391602  0.02477873  0.03191022     0.18220
H2111       H  0.52790307  0.11525480  0.00966969     0.18230
F2112       F  0.49594718  0.07579913  0.99761750    -0.19530
C2113       C  0.44804202  0.95475834  0.96500914    -0.20970
C2114       C  0.46789615  0.95381253  0.98502855    -0.09010
C2115       C  0.47216830  0.92992302  0.99935080     0.29850
C2116       C  0.45689186  0.90713279  0.99357531    -0.20970
C2117       C  0.43678816  0.90778472  0.97360262    -0.09020
C2118       C  0.43242686  0.93197780  0.95936142     0.29850
F2119       F  0.41258907  0.93403204  0.94069366    -0.19540
H2120       H  0.44433941  0.97331037  0.95416224     0.18220
H2121       H  0.46105960  0.88891295  0.00474123     0.18230
F2122       F  0.49118962  0.92868950  0.01896070    -0.19530
C2123       C  0.28713567  0.74071485  0.34662972    -0.20970
C2124       C  0.31011823  0.72428896  0.34463406    -0.09010
C2125       C  0.31745340  0.71386026  0.31926586     0.29850
C2126       C  0.30221889  0.72019275  0.29639217    -0.20970
C2127       C  0.27946241  0.73676344  0.29856160    -0.09020
C2128       C  0.27184409  0.74679892  0.32383749     0.29850
F2129       F  0.24978907  0.76276159  0.32636556    -0.19540
H2130       H  0.28090109  0.74880163  0.36592143     0.18220
H2131       H  0.30830701  0.71246005  0.27689966     0.18230
F2132       F  0.33987994  0.69850914  0.31634852    -0.19530
C2133       C  0.53230645  0.93239660  0.92838027    -0.20970
C2134       C  0.52724487  0.94462073  0.90337979    -0.09010
C2135       C  0.51535152  0.97034264  0.90276287     0.29850
C2136       C  0.50841588  0.98335541  0.92674969    -0.20970
C2137       C  0.51310347  0.97095404  0.95167018    -0.09020
C2138       C  0.52515177  0.94536850  0.95237987     0.29850
F2139       F  0.53033131  0.93313940  0.97625362    -0.19540
H2140       H  0.54136322  0.91257862  0.92930742     0.18220
H2141       H  0.49947912  0.00324364  0.92595304     0.18230
F2142       F  0.51108265  0.98321509  0.87902663    -0.19530
C2143       C  0.44134855  0.86960265  0.66029011    -0.20970
C2144       C  0.41427020  0.87209924  0.66803578    -0.09010
C2145       C  0.40801930  0.87535287  0.69549578     0.29850
C2146       C  0.42862167  0.87646709  0.71468682    -0.20970
C2147       C  0.45574085  0.87413495  0.70689192    -0.09020
C2148       C  0.46191454  0.87061641  0.67943069     0.29850
F2149       F  0.48782194  0.86928257  0.67082165    -0.19540
H2150       H  0.44664956  0.86750950  0.63921117     0.18220
H2151       H  0.42331849  0.87885119  0.73572419     0.18230
F2152       F  0.38201815  0.87691852  0.70383032    -0.19530
C2153       C  0.37761469  0.84065160  0.55732321    -0.20970
C2154       C  0.37480535  0.83277889  0.58431800    -0.09010
C2155       C  0.37289817  0.80527944  0.59061273     0.29850
C2156       C  0.37395649  0.78597601  0.57014277    -0.20970
C2157       C  0.37672691  0.79379497  0.54309302    -0.09020
C2158       C  0.37866619  0.82135554  0.53682418     0.29850
F2159       F  0.38249884  0.82962031  0.51104615    -0.19540
H2160       H  0.37943108  0.86177121  0.55219592     0.18220
H2161       H  0.37212809  0.76489968  0.57540742     0.18230
F2162       F  0.36934289  0.79716592  0.61648721    -0.19530
C2163       C  0.21334253  0.20182318  0.70141409    -0.20970
C2164       C  0.23595031  0.20280108  0.71825225    -0.09010
C2165       C  0.25207768  0.17985523  0.72116763     0.29850
C2166       C  0.24572126  0.15625188  0.70730394    -0.20970
C2167       C  0.22315500  0.15499550  0.69012437    -0.09020
C2168       C  0.20692382  0.17822001  0.68739857     0.29850
F2169       F  0.18519350  0.17859477  0.67088429    -0.19540
H2170       H  0.20076748  0.21948383  0.69900141     0.18220
H2171       H  0.25851717  0.13891442  0.71036000     0.18230
F2172       F  0.27384801  0.18022956  0.73771392    -0.19530
C2173       C  0.06968366  0.03781778  0.56727533    -0.20970
C2174       C  0.09416048  0.02554339  0.55990041    -0.09010
C2175       C  0.09458656  0.00818086  0.53739560     0.29850
C2176       C  0.07097074  0.00283217  0.52316741    -0.20970
C2177       C  0.04664262  0.01476193  0.53086636    -0.09020
C2178       C  0.04604767  0.03243755  0.55288960     0.29850
F2179       F  0.02258460  0.04418759  0.56058192    -0.19540
H2180       H  0.06870316  0.05118686  0.58448938     0.18220
H2181       H  0.07160180  0.98927248  0.50606197     0.18230
F2182       F  0.11782800  0.99680581  0.52860439    -0.19530
C2183       C  0.31967908  0.96162521  0.63045057    -0.20970
C2184       C  0.29273550  0.95482831  0.62499448    -0.09010
C2185       C  0.28631531  0.92768733  0.61972675     0.29850
C2186       C  0.30643228  0.90802457  0.61992964    -0.20970
C2187       C  0.33331558  0.91484206  0.62541400    -0.09020
C2188       C  0.33979731  0.94193017  0.63061168     0.29850
F2189       F  0.36566670  0.94954751  0.63511054    -0.19540
H2190       H  0.32536342  0.98232576  0.63420547     0.18220
H2191       H  0.30086802  0.88725409  0.61626449     0.17750
F2192       F  0.26055754  0.91979125  0.61523576    -0.19530
C2193       C  0.29455848  0.19624302  0.21646639    -0.20970
C2194       C  0.29589384  0.21798880  0.23438525    -0.09010
C2195       C  0.31998754  0.22329378  0.24808891     0.29850
C2196       C  0.34271345  0.20753878  0.24334603    -0.20970
C2197       C  0.34174472  0.18572782  0.22528368    -0.09020
C2198       C  0.31723394  0.18003618  0.21202787     0.29850
F2199       F  0.31474907  0.15831519  0.19564113    -0.19540
H2200       H  0.27575692  0.19145237  0.20648720     0.18220
H2201       H  0.36110635  0.21262242  0.25385330     0.18230
F2202       F  0.32144163  0.24375423  0.26619904    -0.19530
C2203       C  0.49954128  0.02443468  0.07165315    -0.20970
C2204       C  0.48501323  0.03018022  0.04821903    -0.09010
C2205       C  0.46397744  0.04902519  0.04910791     0.29850
C2206       C  0.45795093  0.06234012  0.07321885    -0.20970
C2207       C  0.47272720  0.05691784  0.09679698    -0.09020
C2208       C  0.49338542  0.03741912  0.09581345     0.29850
F2209       F  0.50720362  0.03018514  0.11824144    -0.19540
H2210       H  0.51549098  0.00954157  0.07124600     0.18220
H2211       H  0.44199200  0.07718984  0.07328046     0.18230
F2212       F  0.44949059  0.05468381  0.02662577    -0.19530
C2213       C  0.62307687  0.19257591  0.41011448    -0.20970
C2214       C  0.62339585  0.16531815  0.41750227    -0.09010
C2215       C  0.62342361  0.15842633  0.44495368     0.29850
C2216       C  0.62318223  0.17856099  0.46462362    -0.20970
C2217       C  0.62278588  0.20588120  0.45729557    -0.09020
C2218       C  0.62287987  0.21273692  0.42976476     0.29850
F2219       F  0.62367242  0.23883524  0.42174566    -0.19540
H2220       H  0.62337592  0.19824508  0.38903783     0.18220
H2221       H  0.62281906  0.17272701  0.48563939     0.18230
F2222       F  0.62289204  0.13223367  0.45273782    -0.19530
C2223       C  0.59063956  0.12155491  0.30753734    -0.20970
C2224       C  0.58315532  0.12479810  0.33462349    -0.09010
C2225       C  0.55580341  0.12851197  0.34101363     0.29850
C2226       C  0.53644954  0.12920777  0.32061415    -0.20970
C2227       C  0.54388465  0.12604625  0.29347504    -0.09020
C2228       C  0.57128168  0.12220686  0.28710617     0.29850
F2229       F  0.57960952  0.11993185  0.26116538    -0.19540
H2230       H  0.61162897  0.11900180  0.30213629     0.18220
H2231       H  0.51552258  0.13174925  0.32618899     0.18230
F2232       F  0.54765830  0.13073888  0.36703784    -0.19530
C2233       C  0.90344334  0.99046584  0.46258422    -0.20970
C2234       C  0.90546200  0.97488838  0.43898874    -0.09010
C2235       C  0.93090240  0.96499049  0.43116898     0.29850
C2236       C  0.95375035  0.97089482  0.44659588    -0.20970
C2237       C  0.95152899  0.98661174  0.46994727    -0.09020
C2238       C  0.92624353  0.99625432  0.47796060     0.29850
F2239       F  0.92371277  0.01155021  0.50050187    -0.19540
H2240       H  0.88414735  0.99813711  0.46925481     0.18220
H2241       H  0.97327151  0.96354783  0.44016950     0.18230
F2242       F  0.93393767  0.95055473  0.40814854    -0.19530
C2243       C  0.71153861  0.06933040  0.37998873    -0.20970
C2244       C  0.70431195  0.04212792  0.37705781    -0.09010
C2245       C  0.67688388  0.03548329  0.37409084     0.29850
C2246       C  0.65730273  0.05570893  0.37389007    -0.20970
C2247       C  0.66458910  0.08285585  0.37679437    -0.09020
C2248       C  0.69194662  0.08952400  0.37981004     0.29850
F2249       F  0.69983856  0.11561895  0.38179596    -0.19540
H2250       H  0.73246872  0.07510557  0.38194374     0.18220
H2251       H  0.63630920  0.05011659  0.37189254     0.18230
F2252       F  0.66877103  0.00947067  0.37222891    -0.19530
C2253       C  0.04630525  0.96854669  0.94759107    -0.20970
C2254       C  0.04768104  0.98580767  0.96987257    -0.09010
C2255       C  0.07247422  0.99690886  0.97742492     0.29850
C2256       C  0.09568733  0.99079448  0.96281655    -0.20970
C2257       C  0.09458827  0.97359533  0.94029010    -0.09020
C2258       C  0.06953992  0.96245475  0.93280251     0.29850
F2259       F  0.06718855  0.94648485  0.91074898    -0.19540
H2260       H  0.02713707  0.96009985  0.94149300     0.18220
H2261       H  0.11457078  0.99950932  0.96931490     0.18230
F2262       F  0.07413301  0.01384121  0.99884938    -0.19530
C2263       C  0.96384707  0.95194153  0.04777139    -0.20970
C2264       C  0.98523997  0.97032045  0.04759620    -0.09010
C2265       C  0.00019959  0.97447695  0.07116001     0.29850
C2266       C  0.99391714  0.96028849  0.09458631    -0.20970
C2267       C  0.97257668  0.94163408  0.09500070    -0.09020
C2268       C  0.95747811  0.93766452  0.07122907     0.29850
F2269       F  0.93715043  0.91947066  0.07021754    -0.19540
H2270       H  0.95228651  0.94845595  0.02959203     0.18220
H2271       H  0.00574495  0.96416509  0.11247835     0.18230
F2272       F  0.02085917  0.99237169  0.07148012    -0.19530
C2273       C  0.97898022  0.07244706  0.99448961    -0.20970
C2274       C  0.96959354  0.04768105  0.98485062    -0.09010
C2275       C  0.94631525  0.04682049  0.96884089     0.29850
C2276       C  0.93246324  0.07060538  0.96279426    -0.20970
C2277       C  0.94149315  0.09544770  0.97292796    -0.09020
C2278       C  0.96509241  0.09617980  0.98866117     0.29850
F2279       F  0.97512476  0.11985378  0.99792299    -0.19540
H2280       H  0.99709009  0.07331795  0.00663899     0.18220
H2281       H  0.91433073  0.06953162  0.95071705     0.18230
F2282       F  0.93693470  0.02300455  0.95927579    -0.19530
C2283       C  0.92731258  0.00415321  0.02144145    -0.20970
C2284       C  0.95205261  0.01479493  0.02970698    -0.09010
C2285       C  0.95317981  0.03156496  0.05242255     0.29850
C2286       C  0.92967850  0.03731888  0.06690828    -0.20970
C2287       C  0.90483704  0.02622052  0.05901286    -0.09020
C2288       C  0.90384951  0.00979441  0.03585696     0.29850
F2289       F  0.88020125  0.99959239  0.02672975    -0.19540
H2290       H  0.92626253  0.99126292  0.00384966     0.18220
H2291       H  0.93102390  0.04994963  0.08465227     0.18230
F2292       F  0.97703201  0.04203486  0.06070292    -0.19530
C2293       C  0.03452515  0.05037227  0.95269993    -0.20970
C2294       C  0.01466342  0.03034716  0.95215027    -0.09010
C2295       C  0.00144357  0.02450198  0.92791438     0.29850
C2296       C  0.00782226  0.03874026  0.90454203    -0.20970
C2297       C  0.02763504  0.05899089  0.90484969    -0.09020
C2298       C  0.04108394  0.06460185  0.92925082     0.29850
F2299       F  0.05987617  0.08435413  0.93078618    -0.19540
H2300       H  0.04475184  0.05511200  0.97138792     0.18220
H2301       H  0.99734842  0.03366009  0.88610261     0.18230
F2302       F  0.98241598  0.00491192  0.92688937    -0.19530
C2303       C  0.05451947  0.95422967  0.02898292    -0.20970
C2304       C  0.03016597  0.95282956  0.01477383    -0.09010
C2305       C  0.01988704  0.92766278  0.00719676     0.29850
C2306       C  0.03393660  0.90417310  0.01359418    -0.20970
C2307       C  0.05841280  0.90537087  0.02779132    -0.09020
C2308       C  0.06861178  0.93070693  0.03549447     0.29850
F2309       F  0.09257865  0.93288363  0.04844106    -0.19540
H2310       H  0.06262499  0.97357713  0.03493138     0.18220
H2311       H  0.02551907  0.88498214  0.00757615     0.18230
F2312       F  0.99630772  0.92588937  0.99346326    -0.19530
C2313       C  0.45971837  0.43564959  0.57191111    -0.20970
C2314       C  0.47584013  0.43928069  0.59498867    -0.09010
C2315       C  0.49659707  0.45869822  0.59414523     0.29850
C2316       C  0.50124669  0.47352861  0.57073557    -0.20970
C2317       C  0.48541492  0.46950092  0.54777717    -0.09020
C2318       C  0.46447502  0.45057888  0.54847483     0.29850
F2319       F  0.44909770  0.44610408  0.52631718    -0.19540
H2320       H  0.44372121  0.42086639  0.57173769     0.18220
H2321       H  0.51740758  0.48817968  0.57041826     0.18230
F2322       F  0.51220484  0.46394461  0.61593173    -0.19530
C2323       C  0.57192264  0.49639110  0.47788970    -0.20970
C2324       C  0.54727807  0.48539222  0.46983259    -0.09010
C2325       C  0.54626876  0.46826917  0.44737207     0.29850
C2326       C  0.56979415  0.46253744  0.43290993    -0.20970
C2327       C  0.59454539  0.47397297  0.44059913    -0.09020
C2328       C  0.59541169  0.49074226  0.46352443     0.29850
F2329       F  0.61897962  0.50122303  0.47253713    -0.19540
H2330       H  0.57289144  0.50945523  0.49536147     0.18220
H2331       H  0.56854326  0.44961596  0.41536953     0.18230
F2332       F  0.52251481  0.45739220  0.43934088    -0.19530
C2333       C  0.44577516  0.54543548  0.46878685    -0.20970
C2334       C  0.46885251  0.54682418  0.48498461    -0.09010
C2335       C  0.47738967  0.57178637  0.49500168     0.29850
C2336       C  0.46273794  0.59506644  0.48920141    -0.20970
C2337       C  0.43945492  0.59385412  0.47312194    -0.09020
C2338       C  0.43113652  0.56876631  0.46280790     0.29850
F2339       F  0.40835150  0.56657366  0.44787798    -0.19540
H2340       H  0.43896761  0.52620682  0.46106255     0.18220
H2341       H  0.46972708  0.61411338  0.49719703     0.18230
F2342       F  0.49979444  0.57353346  0.51058319    -0.19530
C2343       C  0.55444773  0.45453704  0.52959136    -0.20970
C2344       C  0.53041201  0.45264008  0.51489938    -0.09010
C2345       C  0.52116150  0.42735131  0.50646923     0.29850
C2346       C  0.53602568  0.40423615  0.51234545    -0.20970
C2347       C  0.56024675  0.40595338  0.52691629    -0.09020
C2348       C  0.56930184  0.43136761  0.53565933     0.29850
F2349       F  0.59295883  0.43397912  0.54909102    -0.19540
H2350       H  0.56177100  0.47401885  0.53611790     0.18220
H2351       H  0.52849470  0.38492582  0.50556901     0.18230
F2352       F  0.49789430  0.42512281  0.49227777    -0.19530
C2353       C  0.42658872  0.50501301  0.51984625    -0.20970
C2354       C  0.45146017  0.51388783  0.52968031    -0.09010
C2355       C  0.45238006  0.52988118  0.55297374     0.29850
C2356       C  0.42851472  0.53665091  0.56641801    -0.20970
C2357       C  0.40352160  0.52733056  0.55688623    -0.09020
C2358       C  0.40278623  0.51161236  0.53325155     0.29850
F2359       F  0.37905917  0.50317299  0.52263263    -0.19540
H2360       H  0.42566606  0.49298717  0.50164214     0.18220
H2361       H  0.42962150  0.54872732  0.58456311     0.18230
F2362       F  0.47631675  0.53889100  0.56261805    -0.19530
C2363       C  0.53439569  0.54916331  0.45253887    -0.20970
C2364       C  0.51398534  0.52971524  0.45224578    -0.09010
C2365       C  0.50036638  0.52415614  0.42819271     0.29850
C2366       C  0.50707234  0.53793767  0.40466428    -0.20970
C2367       C  0.52746025  0.55764768  0.40464426    -0.09020
C2368       C  0.54114851  0.56310407  0.42898517     0.29850
F2369       F  0.56052245  0.58227822  0.43040710    -0.19540
H2370       H  0.54497523  0.55361847  0.47110410     0.18220
H2371       H  0.49633469  0.53286360  0.38639617     0.18230
F2372       F  0.48067795  0.50520993  0.42747547    -0.19530
C2373       C  0.56250750  0.57196925  0.95803159    -0.20970
C2374       C  0.55925095  0.59480434  0.97459716    -0.09010
C2375       C  0.54098436  0.59326213  0.99638224     0.29850
C2376       C  0.52690629  0.56948957  0.00151899    -0.20970
C2377       C  0.53043583  0.54684216  0.98511846    -0.09020
C2378       C  0.54825768  0.54819369  0.96322654     0.29850
F2379       F  0.55220126  0.52639096  0.94720355    -0.19540
H2380       H  0.57640470  0.57227417  0.94124116     0.18220
H2381       H  0.51303208  0.56873220  0.01835882     0.18230
F2382       F  0.53602861  0.61473281  0.01251450    -0.19530
C2383       C  0.57011745  0.53315063  0.06826164    -0.20970
C2384       C  0.59542961  0.52675588  0.05729790    -0.09010
C2385       C  0.59669702  0.51407788  0.03194423     0.29850
C2386       C  0.57308200  0.50760367  0.01811619    -0.20970
C2387       C  0.54786103  0.51339336  0.02936615    -0.09020
C2388       C  0.54644596  0.52635522  0.05449175     0.29850
F2389       F  0.52221270  0.53250947  0.06556019    -0.19540
H2390       H  0.56867459  0.54288642  0.08774762     0.18220
H2391       H  0.57441044  0.49794222  0.99857544     0.18230
F2392       F  0.62075786  0.50849703  0.02020795    -0.19530
C2393       C  0.46477701  0.40285499  0.01503120    -0.20970
C2394       C  0.43933965  0.40499005  0.02738321    -0.09010
C2395       C  0.42903831  0.43086901  0.03297066     0.29850
C2396       C  0.44389683  0.45388837  0.02618539    -0.20970
C2397       C  0.46918149  0.45154751  0.01376904    -0.09020
C2398       C  0.47956937  0.42584719  0.00832613     0.29850
F2399       F  0.50392660  0.42303483  0.99621591    -0.19540
H2400       H  0.47335879  0.38330308  0.01061245     0.18220
H2401       H  0.43563751  0.47361724  0.03048961     0.18230
F2402       F  0.40427574  0.43405938  0.04408080    -0.19530
C2403       C  0.42811369  0.45950877  0.93488732    -0.20970
C2404       C  0.40441206  0.47410314  0.94037398    -0.09010
C2405       C  0.40499115  0.49395628  0.96073846     0.29850
C2406       C  0.42881943  0.49940964  0.97459876    -0.20970
C2407       C  0.45234626  0.48503214  0.96882340    -0.09020
C2408       C  0.45191019  0.46488851  0.94902329     0.29850
F2409       F  0.47457293  0.45076082  0.94315286    -0.19540
H2410       H  0.42840101  0.44420347  0.91935152     0.18220
H2411       H  0.42892550  0.51479596  0.99009482     0.18230
F2412       F  0.38249757  0.50769550  0.96793019    -0.19530
C2413       C  0.34423074  0.70909370  0.75515392    -0.20970
C2414       C  0.34444380  0.69052934  0.77657712    -0.09010
C2415       C  0.32073822  0.68715476  0.79191470     0.29850
C2416       C  0.29752020  0.70190365  0.78566935    -0.20970
C2417       C  0.29752137  0.72009860  0.76411089    -0.09020
C2418       C  0.32104380  0.72370008  0.74895866     0.29850
F2419       F  0.32156992  0.74148185  0.72820803    -0.19540
H2420       H  0.36209609  0.71256580  0.74317277     0.18220
H2421       H  0.27937365  0.69889328  0.79740785     0.18230
F2422       F  0.31954985  0.66907743  0.81233860    -0.19530
C2423       C  0.46612926  0.56931940  0.93034706    -0.20970
C2424       C  0.47356357  0.55938375  0.90487552    -0.09010
C2425       C  0.48637052  0.53413233  0.90311802     0.29850
C2426       C  0.49210462  0.51950537  0.92642599    -0.20970
C2427       C  0.48537240  0.52980076  0.95181647    -0.09020
C2428       C  0.47213647  0.55471559  0.95371444     0.29850
F2429       F  0.46520540  0.56489721  0.97813846    -0.19540
H2430       H  0.45625172  0.58867804  0.93219410     0.18220
H2431       H  0.50209350  0.50018029  0.92473543     0.18230
F2432       F  0.49288832  0.52328030  0.87887185    -0.19530
C2433       C  0.65791717  0.55558231  0.62586960    -0.20970
C2434       C  0.66497704  0.58283818  0.62339523    -0.09010
C2435       C  0.69233816  0.58980306  0.62095955     0.29850
C2436       C  0.71212754  0.56978346  0.62087187    -0.20970
C2437       C  0.70507614  0.54252362  0.62346749    -0.09020
C2438       C  0.67769920  0.53557160  0.62589365     0.29850
F2439       F  0.66988730  0.50943862  0.62738844    -0.19540
H2440       H  0.63695223  0.54973177  0.62735526     0.18220
H2441       H  0.73306158  0.57568690  0.61929589     0.18230
F2442       F  0.70002488  0.61598761  0.61944754    -0.19530
C2443       C  0.60109832  0.66959479  0.56619444    -0.20970
C2444       C  0.62384120  0.66500343  0.58238288    -0.09010
C2445       C  0.64707105  0.68075274  0.57848521     0.29850
C2446       C  0.64757260  0.70048076  0.55843694    -0.20970
C2447       C  0.62485701  0.70498304  0.54233171    -0.09020
C2448       C  0.60157064  0.68948270  0.54627692     0.29850
F2449       F  0.57957177  0.69321007  0.53047005    -0.19540
H2450       H  0.58311667  0.65752040  0.56877820     0.18220
H2451       H  0.66553412  0.71256175  0.55573350     0.18230
F2452       F  0.66898523  0.67751346  0.59452198    -0.19530
C2453       C  0.58884928  0.61999734  0.69057386    -0.20970
C2454       C  0.58139801  0.62252039  0.66340662    -0.09010
C2455       C  0.55395356  0.62499712  0.65684652     0.29850
C2456       C  0.53444761  0.62496768  0.67718558    -0.20970
C2457       C  0.54188174  0.62235784  0.70439720    -0.09020
C2458       C  0.56939142  0.61997453  0.71090676     0.29850
F2459       F  0.57770425  0.61855158  0.73690616    -0.19540
H2460       H  0.60990151  0.61850520  0.69611606     0.18220
H2461       H  0.51344193  0.62655159  0.67155172     0.18230
F2462       F  0.54592523  0.62670115  0.63075422    -0.19530
C2463       C  0.54659704  0.96548639  0.55257844    -0.20970
C2464       C  0.54698413  0.98378985  0.53111910    -0.09010
C2465       C  0.57128941  0.99606865  0.52374673     0.29850
C2466       C  0.59492634  0.99022935  0.53783122    -0.20970
C2467       C  0.59476504  0.97196078  0.55948758    -0.09020
C2468       C  0.57026855  0.95951345  0.56668617     0.29850
F2469       F  0.56885992  0.94238622  0.58791184    -0.19540
H2470       H  0.52785451  0.95607850  0.55856349     0.18220
H2471       H  0.61341669  0.99995824  0.53163272     0.18230
F2472       F  0.57204841  0.01386582  0.50301441    -0.19530
C2473       C  0.53108831  0.05172579  0.54748196    -0.20970
C2474       C  0.51492882  0.02864475  0.54912597    -0.09010
C2475       C  0.50592724  0.01973401  0.57434866     0.29850
C2476       C  0.51255150  0.03407539  0.59761166    -0.20970
C2477       C  0.52839134  0.05748790  0.59614982    -0.09020
C2478       C  0.53781305  0.06612682  0.57080454     0.29850
F2479       F  0.55253154  0.08900525  0.56837658    -0.19540
H2480       H  0.53817197  0.05873197  0.52807276     0.18220
H2481       H  0.50528388  0.02679024  0.61684138     0.18230
F2482       F  0.49053359  0.99724550  0.57638661    -0.19530
C2483       C  0.47500106  0.94145619  0.45519045    -0.20970
C2484       C  0.48358696  0.96837302  0.45409399    -0.09010
C2485       C  0.48669970  0.98083363  0.42888802     0.29850
C2486       C  0.48159144  0.96645076  0.40520119    -0.20970
C2487       C  0.47294691  0.93955290  0.40628200    -0.09020
C2488       C  0.46965249  0.92713094  0.43151179     0.29850
F2489       F  0.46230581  0.90087191  0.43324820    -0.19540
H2490       H  0.47254666  0.93153288  0.47445254     0.18220
H2491       H  0.48423238  0.97638791  0.38596101     0.18230
F2492       F  0.49515579  0.00676613  0.42722438    -0.19530
C2493       C  0.52388313  0.92709989  0.50138671    -0.20970
C2494       C  0.52874675  0.95079113  0.48698678    -0.09010
C2495       C  0.54816754  0.95086384  0.46646111     0.29850
C2496       C  0.56274794  0.92739395  0.46067536    -0.20970
C2497       C  0.55815736  0.90354014  0.47530581    -0.09020
C2498       C  0.53822464  0.90364561  0.49560555     0.29850
F2499       F  0.53188354  0.88103449  0.50951286    -0.19540
H2500       H  0.50872898  0.92679030  0.51709971     0.18220
H2501       H  0.57791689  0.92805125  0.44502400     0.18230
F2502       F  0.55320746  0.97369000  0.45232213    -0.19530
C2503       C  0.44602689  0.03793912  0.46068953    -0.20970
C2504       C  0.44944381  0.01281490  0.47309151    -0.09010
C2505       C  0.42828385  0.99405665  0.47158081     0.29850
C2506       C  0.40477911  0.00009958  0.45721832    -0.20970
C2507       C  0.40119006  0.02542095  0.44486889    -0.09020
C2508       C  0.42193344  0.04464735  0.44774272     0.29850
F2509       F  0.41928135  0.07007979  0.43830566    -0.19540
H2510       H  0.46218156  0.05250076  0.46076682     0.18220
H2511       H  0.38939236  0.98475610  0.45603483     0.18230
F2512       F  0.43030711  0.96980195  0.48400177    -0.19530
C2513       C  0.03405953  0.59582919  0.51382885    -0.20970
C2514       C  0.05929532  0.59406883  0.52653699    -0.09010
C2515       C  0.06967169  0.56850265  0.53312053     0.29850
C2516       C  0.05503391  0.54525913  0.52685377    -0.20970
C2517       C  0.02990135  0.54722304  0.51414210    -0.09020
C2518       C  0.01942587  0.57263671  0.50776212     0.29850
F2519       F  0.99522605  0.57492785  0.49524485    -0.19540
H2520       H  0.02554295  0.61522549  0.50867923     0.18220
H2521       H  0.06333792  0.52568347  0.53170603     0.18230
F2522       F  0.09431142  0.56586678  0.54464468    -0.19530
C2523       C  0.95785857  0.56230669  0.57207471    -0.20970
C2524       C  0.97415622  0.55906301  0.59506733    -0.09010
C2525       C  0.99585592  0.54070665  0.59388034     0.29850
C2526       C  0.00132380  0.52661805  0.57017041    -0.20970
C2527       C  0.98524542  0.53017967  0.54731168    -0.09020
C2528       C  0.96332910  0.54798961  0.54837769     0.29850
F2529       F  0.94755400  0.55183909  0.52638563    -0.19540
H2530       H  0.94111841  0.57626465  0.57221995     0.18220
H2531       H  0.01811963  0.51268846  0.56963538     0.18230
F2532       F  0.01150431  0.53565773  0.61568684    -0.19530
C2533       C  0.93007823  0.46615582  0.56953947    -0.20970
C2534       C  0.90474571  0.47313585  0.55902389    -0.09010
C2535       C  0.90328672  0.48565841  0.53363332     0.29850
C2536       C  0.92677873  0.49145818  0.51932910    -0.20970
C2537       C  0.95203809  0.48516396  0.53017499    -0.09020
C2538       C  0.95363123  0.47231082  0.55531293     0.29850
F2539       F  0.97792561  0.46580396  0.56602363    -0.19540
H2540       H  0.93164428  0.45651964  0.58904619     0.18220
H2541       H  0.92533665  0.50112653  0.49981997     0.18230
F2542       F  0.87914954  0.49180092  0.52236454    -0.19530
C2543       C  0.03184520  0.42963115  0.42951932    -0.20970
C2544       C  0.02606628  0.44095064  0.40423119    -0.09010
C2545       C  0.01464610  0.46687030  0.40302289     0.29850
C2546       C  0.00877863  0.48090946  0.42669967    -0.20970
C2547       C  0.01398560  0.46932922  0.45189818    -0.09020
C2548       C  0.02570134  0.44362156  0.45322199     0.29850
F2549       F  0.03122534  0.43214033  0.47740221    -0.19540
H2550       H  0.04060678  0.40971099  0.43093227     0.18220
H2551       H  0.99997508  0.50083219  0.42543821     0.18230
F2552       F  0.00971129  0.47892157  0.37899070    -0.19530
C2553       C  0.97335057  0.42915329  0.50168032    -0.20970
C2554       C  0.96935213  0.45192404  0.48564557    -0.09010
C2555       C  0.95150233  0.45062776  0.46380865     0.29850
C2556       C  0.93773138  0.42668120  0.45822843    -0.20970
C2557       C  0.94163734  0.40359788  0.47427384    -0.09020
C2558       C  0.95990242  0.40516351  0.49606328     0.29850
F2559       F  0.96555358  0.38354834  0.51171404    -0.19540
H2560       H  0.98728817  0.42992009  0.51846525     0.18220
H2561       H  0.92382754  0.42640996  0.44145800     0.18230
F2562       F  0.94721497  0.47258519  0.44812193    -0.19530
C2563       C  0.09379548  0.50466523  0.45814736    -0.20970
C2564       C  0.09505631  0.52752235  0.44135141    -0.09010
C2565       C  0.07171403  0.54368618  0.43888883     0.29850
C2566       C  0.04809088  0.53691190  0.45271506    -0.20970
C2567       C  0.04719570  0.51410447  0.46924780    -0.09020
C2568       C  0.07021933  0.49805210  0.47192897     0.29850
F2569       F  0.06999807  0.47614374  0.48826137    -0.19540
H2570       H  0.11107246  0.49176876  0.46100722     0.18220
H2571       H  0.03039096  0.54948088  0.45052830     0.18230
F2572       F  0.07129119  0.56593722  0.42313545    -0.19530
C2573       C  0.21141560  0.67974887  0.31673673    -0.20970
C2574       C  0.22328359  0.65537251  0.30843313    -0.09010
C2575       C  0.24067492  0.65554058  0.28594566     0.29850
C2576       C  0.24629177  0.67957837  0.27254185    -0.20970
C2577       C  0.23467979  0.70377002  0.28111933    -0.09020
C2578       C  0.21709044  0.70379667  0.30322289     0.29850
F2579       F  0.20554956  0.72705453  0.31176381    -0.19540
H2580       H  0.19806399  0.68032423  0.33397277     0.18220
H2581       H  0.25969771  0.67936442  0.25530839     0.18230
F2582       F  0.25176743  0.63249394  0.27633450    -0.19530
C2583       C  0.32507700  0.42845931  0.35294242    -0.20970
C2584       C  0.33564348  0.41907926  0.37752641    -0.09010
C2585       C  0.32560331  0.43001670  0.40177322     0.29850
C2586       C  0.30507053  0.44927847  0.40126484    -0.20970
C2587       C  0.29481304  0.45866317  0.37669354    -0.09020
C2588       C  0.30510791  0.44827299  0.35247517     0.29850
F2589       F  0.29523662  0.45660658  0.32837289    -0.19540
H2590       H  0.33201780  0.42018027  0.33397379     0.18220
H2591       H  0.29763020  0.45741360  0.42011657     0.18230
F2592       F  0.33615839  0.42283737  0.42594920    -0.19530
C2593       C  0.28332029  0.23580020  0.65184745    -0.20970
C2594       C  0.30891874  0.22378013  0.65325047    -0.09010
C2595       C  0.32009842  0.21818698  0.67873343     0.29850
C2596       C  0.30584272  0.22457767  0.70221262    -0.20970
C2597       C  0.28028940  0.23649352  0.70064235    -0.09020
C2598       C  0.26906288  0.24201026  0.67530850     0.29850
F2599       F  0.24438835  0.25363076  0.67333242    -0.19540
H2600       H  0.27420357  0.24021109  0.63252715     0.18220
H2601       H  0.31473493  0.22030431  0.72167448     0.18230
F2602       F  0.34511962  0.20743710  0.68103911    -0.19530
C2603       C  0.43611644  0.07253208  0.54092866    -0.20970
C2604       C  0.44529150  0.09674078  0.52935320    -0.09010
C2605       C  0.46801393  0.09598518  0.51235024     0.29850
C2606       C  0.48061912  0.07154041  0.50655103    -0.20970
C2607       C  0.47053625  0.04734232  0.51694239    -0.09020
C2608       C  0.44859644  0.04797609  0.53472708     0.29850
F2609       F  0.43935781  0.02491081  0.54607640    -0.19540
H2610       H  0.41887639  0.07248463  0.55428221     0.18220
H2611       H  0.49805937  0.07135226  0.49342209     0.18230
F2612       F  0.47842711  0.11882919  0.50160539    -0.19530
C2613       C  0.39894769  0.30484475  0.44785501    -0.20970
C2614       C  0.37439693  0.29309335  0.45534848    -0.09010
C2615       C  0.35042712  0.30227128  0.44346515     0.29850
C2616       C  0.35113620  0.32269487  0.42411774    -0.20970
C2617       C  0.37568179  0.33471376  0.41666676    -0.09020
C2618       C  0.39963225  0.32573904  0.42901215     0.29850
F2619       F  0.42360160  0.33771354  0.42358076    -0.19540
H2620       H  0.41756949  0.29828209  0.45714447     0.18220
H2621       H  0.33245452  0.32889630  0.41472312     0.18230
F2622       F  0.32641794  0.29091888  0.44993390    -0.19530
C2623       C  0.67740943  0.27183335  0.24557149    -0.20970
C2624       C  0.70216404  0.28018872  0.23506916    -0.09010
C2625       C  0.70325704  0.30262465  0.21797147     0.29850
C2626       C  0.67970359  0.31686751  0.21188997    -0.20970
C2627       C  0.65485230  0.30896232  0.22295352    -0.09020
C2628       C  0.65390129  0.28599290  0.23960400     0.29850
F2629       F  0.63024705  0.27676401  0.24969445    -0.19540
H2630       H  0.67636131  0.25428291  0.25847664     0.18220
H2631       H  0.68101085  0.33442332  0.19904179     0.18230
F2632       F  0.72711003  0.31082395  0.20743905    -0.19530
C2633       C  0.54154962  0.43684790  0.07183435    -0.20970
C2634       C  0.52514121  0.44029225  0.09475546    -0.09010
C2635       C  0.50336539  0.45855729  0.09326537     0.29850
C2636       C  0.49798694  0.47234237  0.06940277    -0.20970
C2637       C  0.51423277  0.46862357  0.04669330    -0.09020
C2638       C  0.53620261  0.45093072  0.04801347     0.29850
F2639       F  0.55218063  0.44700357  0.02616589    -0.19540
H2640       H  0.55835824  0.42298937  0.07211980     0.18220
H2641       H  0.48114354  0.48620486  0.06864610     0.18230
F2642       F  0.48749970  0.46383765  0.11485826    -0.19530
C2643       C  0.43090702  0.38148135  0.28863240    -0.20970
C2644       C  0.45800657  0.37686149  0.29543307    -0.09010
C2645       C  0.46475798  0.37284887  0.32272513     0.29850
C2646       C  0.44474289  0.37318662  0.34252331    -0.20970
C2647       C  0.41769610  0.37769603  0.33564709    -0.09020
C2648       C  0.41092946  0.38188137  0.30845539     0.29850
F2649       F  0.38489752  0.38549889  0.30089883    -0.19540
H2650       H  0.42498527  0.38430320  0.26783638     0.18220
H2651       H  0.45044472  0.37026634  0.36339074     0.18230
F2652       F  0.49069691  0.36935422  0.33055536    -0.19530
C2653       C  0.77385569  0.75031744  0.67848192    -0.20970
C2654       C  0.77991293  0.76423972  0.70220780    -0.09010
C2655       C  0.79978633  0.78427649  0.70192821     0.29850
C2656       C  0.81364484  0.79006348  0.67805737    -0.20970
C2657       C  0.80779157  0.77601422  0.65409392    -0.09020
C2658       C  0.78740464  0.75619735  0.65457305     0.29850
F2659       F  0.77985112  0.74288927  0.63194232    -0.19540
H2660       H  0.75833691  0.73498636  0.67847977     0.18220
H2661       H  0.82919883  0.80530713  0.67849229     0.18230
F2662       F  0.80593082  0.79797971  0.72478455    -0.19530
C2663       C  0.78659692  0.70261578  0.79837248    -0.20970
C2664       C  0.76474953  0.70252251  0.78048870    -0.09010
C2665       C  0.74973121  0.67891246  0.77707502     0.29850
C2666       C  0.75633863  0.65575303  0.79153740    -0.20970
C2667       C  0.77803366  0.65562195  0.80983726    -0.09020
C2668       C  0.79324786  0.67942728  0.81300120     0.29850
F2669       F  0.81401192  0.68073471  0.83069141    -0.19540
H2670       H  0.79829631  0.72080359  0.80119679     0.18220
H2671       H  0.74442548  0.63785031  0.78813831     0.18230
F2672       F  0.72874292  0.67824570  0.75956015    -0.19530
C2673       C  0.67894445  0.77615627  0.74927003    -0.20970
C2674       C  0.70225608  0.78044349  0.76447735    -0.09010
C2675       C  0.70187427  0.79936319  0.78547094     0.29850
C2676       C  0.67838564  0.81406507  0.79087176    -0.20970
C2677       C  0.65490089  0.81008427  0.77544102    -0.09020
C2678       C  0.65543023  0.79057441  0.75470692     0.29850
F2679       F  0.63320648  0.78475107  0.73995045    -0.19540
H2680       H  0.67897966  0.76142571  0.73314850     0.18220
H2681       H  0.67878828  0.82888390  0.80686441     0.18230
F2682       F  0.72433928  0.80392426  0.80036355    -0.19530
C2683       C  0.74330809  0.82273104  0.73045314    -0.20970
C2684       C  0.73549439  0.79775913  0.71995541    -0.09010
C2685       C  0.72134241  0.79668941  0.69550422     0.29850
C2686       C  0.71538614  0.82045632  0.68159220    -0.20970
C2687       C  0.72371446  0.84553277  0.69176969    -0.09020
C2688       C  0.73755624  0.84646233  0.71653000     0.29850
F2689       F  0.74499515  0.87029641  0.72764695    -0.19540
H2690       H  0.75399856  0.82376854  0.74945765     0.18220
H2691       H  0.70474584  0.81920983  0.66258551     0.18230
F2692       F  0.71336421  0.77268872  0.68514574    -0.19530
C2693       C  0.68052990  0.71589786  0.81984726    -0.20970
C2694       C  0.69145593  0.72242339  0.84514212    -0.09010
C2695       C  0.71686689  0.73495887  0.84638098     0.29850
C2696       C  0.73074642  0.74121534  0.82275163    -0.20970
C2697       C  0.71954554  0.73524415  0.79756474    -0.09020
C2698       C  0.69438594  0.72241918  0.79616765     0.29850
F2699       F  0.68331214  0.71622328  0.77194571    -0.19540
H2700       H  0.66100073  0.70630285  0.81840963     0.18220
H2701       H  0.75027730  0.75085341  0.82404180     0.18230
F2702       F  0.72860916  0.74065284  0.87041080    -0.19530
C2703       C  0.82246450  0.72950561  0.74294254    -0.20970
C2704       C  0.79729596  0.71951588  0.73513817    -0.09010
C2705       C  0.79574321  0.69508687  0.72099610     0.29850
C2706       C  0.81924356  0.68063307  0.71512440    -0.20970
C2707       C  0.84450684  0.69024645  0.72356029    -0.09020
C2708       C  0.84591329  0.71505872  0.73728099     0.29850
F2709       F  0.86994649  0.72569412  0.74477104    -0.19540
H2710       H  0.82386651  0.74846068  0.75367313     0.18220
H2711       H  0.81763604  0.66162129  0.70454674     0.18230
F2712       F  0.77151734  0.68520879  0.71308664    -0.19530
C2713       C  0.75061101  0.18054359  0.77659468    -0.20970
C2714       C  0.73561542  0.20384132  0.78164771    -0.09010
C2715       C  0.71497063  0.20326454  0.80091223     0.29850
C2716       C  0.70973100  0.17959386  0.81525822    -0.20970
C2717       C  0.72494211  0.15611431  0.81052247    -0.09020
C2718       C  0.74531410  0.15682586  0.79066968     0.29850
F2719       F  0.75976970  0.13458793  0.78416236    -0.19540
H2720       H  0.76640386  0.18074647  0.76152071     0.18220
H2721       H  0.69400208  0.17983450  0.83035165     0.18230
F2722       F  0.70016862  0.22566756  0.80604914    -0.19530
C2723       C  0.67679305  0.23020666  0.74471395    -0.20970
C2724       C  0.70204535  0.22044515  0.73683262    -0.09010
C2725       C  0.70378776  0.19615136  0.72247043     0.29850
C2726       C  0.68038830  0.18168570  0.71631813    -0.20970
C2727       C  0.65504895  0.19110661  0.72475708    -0.09020
C2728       C  0.65345072  0.21567595  0.73887157     0.29850
F2729       F  0.62931602  0.22601088  0.74650647    -0.19540
H2730       H  0.67523861  0.24908537  0.75556241     0.18220
H2731       H  0.68212052  0.16282943  0.70547841     0.18230
F2732       F  0.72808888  0.18648749  0.71448733    -0.19530
C2733       C  0.72325167  0.24974654  0.68020801    -0.20970
C2734       C  0.71862986  0.26506791  0.70342070    -0.09010
C2735       C  0.69949446  0.28583829  0.70281907     0.29850
C2736       C  0.68497157  0.29097809  0.67919524    -0.20970
C2737       C  0.68923673  0.27538669  0.65587162    -0.09020
C2738       C  0.70881897  0.25479037  0.65661108     0.29850
F2739       F  0.71466661  0.23987241  0.63446912    -0.19540
H2740       H  0.73817749  0.23382794  0.68041245     0.18220
H2741       H  0.67002680  0.30684771  0.67935496     0.18230
F2742       F  0.69457120  0.30078528  0.72518700    -0.19530
C2743       C  0.77743286  0.29660243  0.69577345    -0.20970
C2744       C  0.76341938  0.29870961  0.72021324    -0.09010
C2745       C  0.75598593  0.32414772  0.72994406     0.29850
C2746       C  0.76216756  0.34721317  0.71516553    -0.20970
C2747       C  0.77622318  0.34529283  0.69066435    -0.09020
C2748       C  0.78397378  0.31974776  0.68109809     0.29850
F2749       F  0.79693871  0.31706166  0.65717158    -0.19540
H2750       H  0.78319876  0.27700558  0.68809691     0.18220
H2751       H  0.75612613  0.36665778  0.72300452     0.18230
F2752       F  0.74249339  0.32658216  0.75361575    -0.19530
C2753       C  0.80456203  0.22277551  0.79592448    -0.20970
C2754       C  0.78033484  0.23709886  0.79827288    -0.09010
C2755       C  0.77100835  0.24469540  0.82383507     0.29850
C2756       C  0.78607375  0.23852961  0.84675400    -0.20970
C2757       C  0.81043752  0.22428765  0.84457468    -0.09020
C2758       C  0.81949705  0.21621468  0.81892594     0.29850
F2759       F  0.84322445  0.20296299  0.81597858    -0.19540
H2760       H  0.81190656  0.21683258  0.77623923     0.18220
H2761       H  0.77859859  0.24478520  0.86628830     0.18230
F2762       F  0.74749209  0.25839034  0.82652689    -0.19530
C2763       C  0.81997884  0.27774394  0.74922266    -0.20970
C2764       C  0.79693278  0.28211568  0.76483453    -0.09010
C2765       C  0.79780213  0.30085729  0.78596857     0.29850
C2766       C  0.82148957  0.31526208  0.79113891    -0.20970
C2767       C  0.84471599  0.31120820  0.77532483    -0.09020
C2768       C  0.84368093  0.29196342  0.75436125     0.29850
F2769       F  0.86558103  0.28619143  0.73909695    -0.19540
H2770       H  0.81958102  0.26312163  0.73300672     0.18220
H2771       H  0.82143764  0.32989230  0.80730649     0.18230
F2772       F  0.77564026  0.30550154  0.80129183    -0.19530
C2773       C  0.74280046  0.67720631  0.22959526    -0.20970
C2774       C  0.73573169  0.70235891  0.21901800    -0.09010
C2775       C  0.72221232  0.70374606  0.19420473     0.29850
C2776       C  0.71586387  0.68010728  0.18019360    -0.20970
C2777       C  0.72338745  0.65486271  0.19051583    -0.09020
C2778       C  0.73685995  0.65362179  0.21545924     0.29850
F2779       F  0.74373445  0.62960490  0.22652610    -0.19540
H2780       H  0.75306699  0.67591486  0.24881531     0.18220
H2781       H  0.70558359  0.68154979  0.16100236     0.18230
F2782       F  0.71510391  0.72792917  0.18366265    -0.19530
C2783       C  0.79145387  0.74503592  0.15540466    -0.20970
C2784       C  0.80967932  0.72329165  0.15483889    -0.09010
C2785       C  0.81293455  0.70773380  0.17843540     0.29850
C2786       C  0.79833421  0.71397816  0.20175802    -0.20970
C2787       C  0.78047255  0.73581047  0.20206249    -0.09020
C2788       C  0.77708654  0.75128785  0.17874106     0.29850
F2789       F  0.75965430  0.77235500  0.17851938    -0.19540
H2790       H  0.78801108  0.75726242  0.13772651     0.18220
H2791       H  0.80114958  0.70195510  0.21974082     0.18230
F2792       F  0.83061470  0.68695568  0.17943692    -0.19530
C2793       C  0.68009824  0.72151049  0.24634389    -0.20970
C2794       C  0.70224308  0.71938492  0.26356991    -0.09010
C2795       C  0.70053966  0.70287648  0.28639116     0.29850
C2796       C  0.67671183  0.68890226  0.29195498    -0.20970
C2797       C  0.65421370  0.69089215  0.27469910    -0.09020
C2798       C  0.65642593  0.70738976  0.25156659     0.29850
F2799       F  0.63606537  0.71014764  0.23364314    -0.19540
H2800       H  0.68120114  0.73423998  0.22866105     0.18220
H2801       H  0.67611120  0.67646738  0.30980000     0.18230
F2802       F  0.72199358  0.70006617  0.30309874    -0.19530
C2803       C  0.67933461  0.78256518  0.31931052    -0.20970
C2804       C  0.69050536  0.77677465  0.34467118    -0.09010
C2805       C  0.71640943  0.76530946  0.34602936     0.29850
C2806       C  0.73057506  0.75938912  0.32245868    -0.20970
C2807       C  0.71912531  0.76449819  0.29718139    -0.09020
C2808       C  0.69344325  0.77628499  0.29567922     0.29850
F2809       F  0.68209194  0.78167222  0.27139902    -0.19540
H2810       H  0.65943055  0.79136422  0.31779849     0.18220
H2811       H  0.75047714  0.75054565  0.32386565     0.18230
F2812       F  0.72831050  0.76031571  0.37013196    -0.19530
C2813       C  0.79472003  0.80604313  0.22253299    -0.20970
C2814       C  0.79698972  0.78089811  0.23514731    -0.09010
C2815       C  0.82252930  0.77082330  0.24172148     0.29850
C2816       C  0.84553149  0.78590116  0.23598853    -0.20970
C2817       C  0.84343202  0.81114012  0.22337181    -0.09020
C2818       C  0.81777228  0.82107469  0.21652780     0.29850
F2819       F  0.81486766  0.84569816  0.20506569    -0.19540
H2820       H  0.77504593  0.81407106  0.21758616     0.18220
H2821       H  0.86504592  0.77776031  0.24134051     0.18230
F2822       F  0.82511354  0.74661098  0.25412952    -0.19530
C2823       C  0.75480666  0.84424488  0.29109172    -0.20970
C2824       C  0.77663073  0.84479913  0.30920820    -0.09010
C2825       C  0.79222584  0.82124625  0.31244419     0.29850
C2826       C  0.78588753  0.79789012  0.29796334    -0.20970
C2827       C  0.76396172  0.79757086  0.28019767    -0.09020
C2828       C  0.74850663  0.82090661  0.27677336     0.29850
F2829       F  0.72743638  0.82113911  0.25934572    -0.19540
H2830       H  0.74260300  0.86196034  0.28769922     0.18220
H2831       H  0.79790430  0.77990432  0.30078598     0.18230
F2832       F  0.81307453  0.82034660  0.33006157    -0.19530
loop_ 
_geom_bond_atom_site_label_1 
_geom_bond_atom_site_label_2 
_geom_bond_distance 
_geom_bond_site_symmetry_2 
_ccdc_geom_bond_type 
C1            C2   1.412       .  A
C1            C6   1.414       .  A
C1         C2807   1.485       .  S
C2            C3   1.411       .  A
C2         C2827   1.483       .  S
C3            C4   1.412       .  A
C3         C2814   1.482       .  S
C4            C5   1.411       .  A
C4         C2787   1.483       .  S
C5            C6   1.414       .  A
C5         C2774   1.484       .  S
C6         C2794   1.483       .  S
C7            C8   1.411       .  A
C7           C12   1.412       .  A
C7         C2764   1.484       .  S
C8            C9   1.412       .  A
C8         C2754   1.482       .  S
C9           C10   1.411       .  A
C9         C2714   1.481       .  S
C10          C11   1.411       .  A
C10        C2724   1.482       .  S
C11          C12   1.412       .  A
C11        C2734   1.483       .  S
C12        C2744   1.481       .  S
C13          C14   1.411       .  A
C13          C18   1.411       .  A
C13        C2704   1.482       .  S
C14          C15   1.414       .  A
C14        C2664   1.485       .  S
C15          C16   1.413       .  A
C15        C2697   1.482       .  S
C16          C17   1.412       .  A
C16        C2674   1.484       .  S
C17          C18   1.411       .  A
C17        C2684   1.483       .  S
C18        C2654   1.481       .  S
N19          N20   1.322       .  A
N19          C23   1.347       .  A
N19         Cu27   2.083       .  S
N20          C21   1.340       .  A
N20         Cu26   2.063       .  S
C21          C22   1.383       .  A
C21          H24   1.081       .  S
C22          C23   1.388       .  A
C22        C2627   1.481       .  S
C23          H25   1.082       .  S
Cu26         N29   2.062       .  S
Cu27         N37   2.083       .  S
Cu28         N30   2.065       .  S
Cu28         N36   2.066       .  S
N29          N30   1.318       .  A
N29          C33   1.343       .  A
N30          C31   1.343       .  A
C31          C32   1.388       .  A
C31          H34   1.081       .  S
C32          C33   1.387       .  A
C32        C2644   1.483       .  S
C33          H35   1.081       .  S
N36          N37   1.321       .  A
N36          C40   1.341       .  A
N37          C38   1.347       .  A
C38          C39   1.391       .  A
C38          H41   1.081       .  S
C39          C40   1.387       .  A
C39        C2634   1.489       .  S
C40          H42   1.079       .  S
N43          N44   1.322       .  A
N43          C47   1.346       .  A
N43         Cu51   2.079       .  S
N44          C45   1.344       .  A
N44         Cu50   2.070       .  S
C45          C46   1.384       .  A
C45          H48   1.082       .  S
C46          C47   1.387       .  A
C46        C2594   1.481       .  S
C47          H49   1.081       .  S
Cu50         N53   2.070       .  S
Cu51         N61   2.079       .  S
Cu52         N54   2.074       .  S
Cu52         N60   2.075       .  S
N53          N54   1.322       .  A
N53          C57   1.345       .  A
N54          C55   1.345       .  A
C55          C56   1.383       .  A
C55          H58   1.082       .  S
C56          C57   1.383       .  A
C56        C2614   1.474       .  S
C57          H59   1.082       .  S
N60          N61   1.322       .  A
N60          C64   1.344       .  A
N61          C62   1.347       .  A
C62          C63   1.388       .  A
C62          H65   1.082       .  S
C63          C64   1.387       .  A
C63        C2604   1.485       .  S
C64          H66   1.081       .  S
C67          C68   1.402       .  A
C67          C72   1.403       .  A
C67        C2647   1.482       .  S
C68          C69   1.404       .  A
C68          H73   1.083       .  S
C69          C70   1.406       .  A
C69        C2617   1.487       .  S
C70          C71   1.406       .  A
C70          H74   1.082       .  S
C71          C72   1.405       .  A
C71        C2584   1.489       .  S
C72          H75   1.083       .  S
N76          N77   1.321       .  A
N76          C80   1.346       .  A
N76         Cu84   2.080       .  S
N77          C78   1.342       .  A
N77         Cu83   2.065       .  S
C78          C79   1.385       .  A
C78          H81   1.081       .  S
C79          C80   1.389       .  A
C79        C2574   1.484       .  S
C80          H82   1.082       .  S
Cu83         N86   2.064       .  S
Cu84         N94   2.080       .  S
Cu85         N87   2.069       .  S
Cu85         N93   2.070       .  S
N86          N87   1.321       .  A
N86          C90   1.344       .  A
N87          C88   1.345       .  A
C88          C89   1.383       .  A
C88          H91   1.082       .  S
C89          C90   1.383       .  A
C89        C2587   1.473       .  S
C90          H92   1.082       .  S
N93          N94   1.320       .  A
N93          C97   1.341       .  A
N94          C95   1.346       .  A
C95          C96   1.393       .  A
C95          H98   1.079       .  S
C96          C97   1.390       .  A
C96        C2564   1.495       .  S
C97          H99   1.080       .  S
C100        C101   1.413       .  A
C100        C105   1.412       .  A
C100       C2567   1.485       .  S
C101        C102   1.413   1_455  A
C101       C2547   1.485       .  S
C102        C103   1.412       .  A
C102       C2554   1.482       .  S
C103        C104   1.411       .  A
C103       C2537   1.483       .  S
C104        C105   1.412   1_655  A
C104       C2527   1.484       .  S
C105       C2517   1.482       .  S
C106        C107   1.422       .  A
C106        C111   1.412       .  A
C106       C2607   1.485       .  S
C107        C108   1.422   1_545  A
C107       C2504   1.499       .  S
C108        C109   1.416       .  A
C108       C2484   1.490       .  S
C109        C110   1.409       .  A
C109       C2494   1.484       .  S
C110        C111   1.408   1_565  A
C110       C2464   1.484       .  S
C111       C2474   1.484       .  S
C112        C113   1.403       .  A
C112        C117   1.404       .  A
C112       C2434   1.482       .  S
C113        C114   1.402       .  A
C113        H118   1.084       .  S
C114        C115   1.403       .  A
C114       C2444   1.478       .  S
C115        C116   1.404       .  A
C115        H119   1.084       .  S
C116        C117   1.404       .  A
C116       C2454   1.482       .  S
C117        H120   1.084       .  S
N121        N122   1.322       .  A
N121        C125   1.347       .  A
N121       Cu129   2.084       .  S
N122        C123   1.342       .  A
N122       Cu128   2.069       .  S
C123        C124   1.386       .  A
C123        H126   1.081       .  S
C124        C125   1.390       .  A
C124       C2414   1.487       .  S
C125        H127   1.081       .  S
Cu128       N131   2.068       .  S
Cu129       N139   2.083       .  S
Cu130       N132   2.068       .  S
Cu130       N138   2.068       .  S
N131        N132   1.320       .  A
N131        C135   1.344       .  A
N132        C133   1.344       .  A
C133        C134   1.387       .  A
C133        H136   1.081       .  S
C134        C135   1.387       .  A
C134       C2457   1.482       .  S
C135        H137   1.082       .  S
N138        N139   1.322       .  A
N138        C142   1.342       .  A
N139        C140   1.348       .  A
C140        C141   1.387       .  A
C140        H143   1.082       .  S
C141        C142   1.383       .  A
C141       C2424   1.480       .  S
C142        H144   1.082       .  S
N145        N146   1.323       .  A
N145        C149   1.348       .  A
N145       Cu153   2.088       .  S
N146        C147   1.342       .  A
N146       Cu152   2.069       .  S
C147        C148   1.382       .  A
C147        H150   1.082       .  S
C148        C149   1.387       .  A
C148       C2804   1.479       .  S
C149        H151   1.082       .  S
Cu152       N155   2.068       .  S
Cu153       N163   2.088       .  S
Cu154       N156   2.064       .  S
Cu154       N162   2.065       .  S
N155        N156   1.321       .  A
N155        C159   1.345       .  A
N156        C157   1.344       .  A
C157        C158   1.380       .  A
C157        H160   1.082       .  S
C158        C159   1.381       .  A
C158       C2447   1.466       .  S
C159        H161   1.082       .  S
N162        N163   1.321       .  A
N162        C166   1.341       .  A
N163        C164   1.348       .  A
C164        C165   1.391       .  A
C164        H167   1.082       .  S
C165        C166   1.385       .  A
C165       C2497   1.488       .  S
C166        H168   1.080       .  S
N169        N170   1.322       .  A
N169        C173   1.347       .  A
N169       Cu177   2.082       .  S
N170        C171   1.342       .  A
N170       Cu176   2.065       .  S
C171        C172   1.382       .  A
C171        H174   1.082       .  S
C172        C173   1.387       .  A
C172       C2747   1.477       .  S
C173        H175   1.082       .  S
Cu176       N179   2.064       .  S
Cu177       N187   2.082       .  S
Cu178       N180   2.068       .  S
Cu178       N186   2.068       .  S
N179        N180   1.320       .  A
N179        C183   1.343       .  A
N180        C181   1.344       .  A
C181        C182   1.386       .  A
C181        H184   1.082       .  S
C182        C183   1.385       .  A
C182       C2437   1.479       .  S
C183        H185   1.081       .  S
N186        N187   1.323       .  A
N186        C190   1.342       .  A
N187        C188   1.347       .  A
C188        C189   1.386       .  A
C188        H191   1.082       .  S
C189        C190   1.382       .  A
C189       C2534   1.477       .  S
C190        H192   1.082       .  S
C193        C194   1.414       .  A
C193        C198   1.414       .  A
C193       C2637   1.481       .  S
C194        C195   1.412   1_554  A
C194       C2397   1.490       .  S
C195        C196   1.413       .  A
C195       C2407   1.481       .  S
C196        C197   1.412       .  A
C196       C2427   1.483       .  S
C197        C198   1.413   1_556  A
C197       C2377   1.486       .  S
C198       C2387   1.485       .  S
C199        C200   1.410       .  A
C199        C204   1.410       .  A
C199       C2324   1.480       .  S
C200        C201   1.410       .  A
C200       C2364   1.481       .  S
C201        C202   1.412       .  A
C201       C2334   1.482       .  S
C202        C203   1.412       .  A
C202       C2354   1.481       .  S
C203        C204   1.412       .  A
C203       C2317   1.483       .  S
C204       C2344   1.482       .  S
C205        C206   1.411   1_556  A
C205        C210   1.411   1_565  A
C205       C2254   1.480       .  S
C206        C207   1.412   1_455  A
C206       C2304   1.483       .  S
C207        C208   1.411   1_565  A
C207       C2264   1.483       .  S
C208        C209   1.411   1_554  A
C208       C2284   1.480       .  S
C209        C210   1.411   1_655  A
C209       C2274   1.481       .  S
C210       C2294   1.482       .  S
N211        N212   1.321       .  A
N211        C215   1.347       .  A
N211       Cu219   2.081       .  S
N212        C213   1.341       .  A
N212       Cu218   2.066       .  S
C213        C214   1.386       .  A
C213        H216   1.081       .  S
C214        C215   1.391       .  A
C214       C2824   1.488       .  S
C215        H217   1.080       .  S
Cu218       N221   2.066       .  S
Cu219       N229   2.081       .  S
Cu220       N222   2.067       .  S
Cu220       N228   2.068       .  S
N221        N222   1.319       .  A
N221        C225   1.344       .  A
N222        C223   1.344   1_565  A
C223        C224   1.387       .  A
C223        H226   1.082       .  S
C224        C225   1.387   1_545  A
C224       C2244   1.482       .  S
C225        H227   1.081       .  S
N228        N229   1.322       .  A
N228        C232   1.342       .  A
N229        C230   1.347       .  A
C230        C231   1.388       .  A
C230        H233   1.081       .  S
C231        C232   1.384       .  A
C231       C2234   1.481       .  S
C232        H234   1.082   1_565  S
C235        C236   1.402       .  A
C235        C240   1.402       .  A
C235       C2214   1.477       .  S
C236        C237   1.404       .  A
C236        H241   1.084       .  S
C237        C238   1.404       .  A
C237       C2247   1.481       .  S
C238        C239   1.404       .  A
C238        H242   1.084       .  S
C239        C240   1.403       .  A
C239       C2224   1.481       .  S
C240        H243   1.084       .  S
N244        N245   1.322       .  A
N244        C248   1.346       .  A
N244       Cu252   2.078       .  S
N245        C246   1.342       .  A
N245       Cu251   2.070       .  S
C246        C247   1.386       .  A
C246        H249   1.082       .  S
C247        C248   1.388       .  A
C247       C2197   1.485       .  S
C248        H250   1.081       .  S
Cu251       N254   2.069       .  S
Cu252       N262   2.078       .  S
Cu253       N255   2.061       .  S
Cu253       N261   2.061       .  S
N254        N255   1.319       .  A
N254        C258   1.344       .  A
N255        C256   1.343       .  A
C256        C257   1.386       .  A
C256        H259   1.081       .  S
C257        C258   1.387       .  A
C257       C2227   1.481       .  S
C258        H260   1.082       .  S
N261        N262   1.321       .  A
N261        C265   1.340       .  A
N262        C263   1.347       .  A
C263        C264   1.389       .  A
C263        H266   1.082       .  S
C264        C265   1.384       .  A
C264       C2207   1.484       .  S
C265        H267   1.080       .  S
N268        N269   1.322       .  A
N268        C272   1.347       .  A
N268       Cu276   2.083       .  S
N269        C270   1.342       .  A
N269       Cu275   2.066       .  S
C270        C271   1.382       .  A
C270        H273   1.082       .  S
C271        C272   1.387       .  A
C271       C2347   1.480       .  S
C272        H274   1.082       .  S
Cu275       N278   2.065       .  S
Cu276       N286   2.083       .  S
Cu277       N279   2.067       .  S
Cu277       N285   2.068       .  S
N278        N279   1.320       .  A
N278        C282   1.344       .  A
N279        C280   1.344       .  A
C280        C281   1.386       .  A
C280        H283   1.082       .  S
C281        C282   1.386       .  A
C281       C2217   1.479       .  S
C282        H284   1.081       .  S
N285        N286   1.322       .  A
N285        C289   1.342       .  A
N286        C287   1.347       .  A
C287        C288   1.389       .  A
C287        H290   1.082       .  S
C288        C289   1.386       .  A
C288       C2737   1.486       .  S
C289        H291   1.080       .  S
N292        N293   1.321       .  A
N292        C296   1.347       .  A
N292       Cu300   2.080       .  S
N293        C294   1.341       .  A
N293       Cu299   2.063       .  S
C294        C295   1.384       .  A
C294        H297   1.081   1_545  S
C295        C296   1.388       .  A
C295       C2174   1.483       .  S
C296        H298   1.082       .  S
Cu299       N302   2.063   1_545  S
Cu300       N310   2.080       .  S
Cu301       N303   2.070       .  S
Cu301       N309   2.070       .  S
N302        N303   1.319   1_565  A
N302        C306   1.343       .  A
N303        C304   1.344       .  A
C304        C305   1.388   1_545  A
C304        H307   1.082       .  S
C305        C306   1.387       .  A
C305       C2184   1.484       .  S
C306        H308   1.081       .  S
N309        N310   1.321       .  A
N309        C313   1.342       .  A
N310        C311   1.346       .  A
C311        C312   1.391       .  A
C311        H314   1.079       .  S
C312        C313   1.388       .  A
C312       C2167   1.491       .  S
C313        H315   1.081       .  S
C316        C317   1.405       .  A
C316        C321   1.405       .  A
C316       C2187   1.483       .  S
C317        C318   1.401       .  A
C317        H322   1.084       .  S
C318        C319   1.401       .  A
C318       C2154   1.476       .  S
C319        C320   1.403       .  A
C319        H323   1.084       .  S
C320        C321   1.404       .  A
C320       C2144   1.481       .  S
C321        H324   1.083       .  S
N325        N326   1.324       .  A
N325        C329   1.348       .  A
N325       Cu333   2.090       .  S
N326        C327   1.343       .  A
N326       Cu332   2.068       .  S
C327        C328   1.381       .  A
C327        H330   1.082       .  S
C328        C329   1.387       .  A
C328       C2134   1.478       .  S
C329        H331   1.082       .  S
Cu332       N335   2.067       .  S
Cu333       N343   2.090       .  S
Cu334       N336   2.063       .  S
Cu334       N342   2.064       .  S
N335        N336   1.319       .  A
N335        C339   1.345       .  A
N336        C337   1.343       .  A
C337        C338   1.385       .  A
C337        H340   1.081       .  S
C338        C339   1.386       .  A
C338       C2147   1.480       .  S
C339        H341   1.082       .  S
N342        N343   1.321       .  A
N342        C346   1.341       .  A
N343        C344   1.348       .  A
C344        C345   1.392       .  A
C344        H347   1.081       .  S
C345        C346   1.386       .  A
C345       C2677   1.490       .  S
C346        H348   1.080       .  S
N349        N350   1.322       .  A
N349        C353   1.347       .  A
N349       Cu357   2.082       .  S
N350        C351   1.342       .  A
N350       Cu356   2.068       .  S
C351        C352   1.383       .  A
C351        H354   1.082       .  S
C352        C353   1.387       .  A
C352       C2124   1.480       .  S
C353        H355   1.082       .  S
Cu356       N359   2.067       .  S
Cu357       N367   2.082       .  S
Cu358       N360   2.068       .  S
Cu358       N366   2.069       .  S
N359        N360   1.320       .  A
N359        C363   1.344       .  A
N360        C361   1.344       .  A
C361        C362   1.385       .  A
C361        H364   1.082       .  S
C362        C363   1.385       .  A
C362       C2157   1.477       .  S
C363        H365   1.082       .  S
N366        N367   1.322       .  A
N366        C370   1.343       .  A
N367        C368   1.347       .  A
C368        C369   1.387       .  A
C368        H371   1.082       .  S
C369        C370   1.383       .  A
C369       C2337   1.481       .  S
C370        H372   1.082       .  S
C373        C374   1.412       .  A
C373        C378   1.412   1_554  A
C373       C2104   1.482       .  S
C374        C375   1.410   1_545  A
C374       C2204   1.481       .  S
C375        C376   1.411   1_554  A
C375       C2097   1.484       .  S
C376        C377   1.412       .  A
C376       C2114   1.479       .  S
C377        C378   1.413   1_565  A
C377       C2137   1.486       .  S
C378       C2087   1.484       .  S
N379        N380   1.322       .  A
N379        C383   1.347       .  A
N379       Cu387   2.079       .  S
N380        C381   1.342       .  A
N380       Cu386   2.067       .  S
C381        C382   1.383       .  A
C381        H384   1.082       .  S
C382        C383   1.387       .  A
C382       C2064   1.479       .  S
C383        H385   1.081       .  S
Cu386       N389   2.067       .  S
Cu387       N397   2.079       .  S
Cu388       N390   2.070       .  S
Cu388       N396   2.071       .  S
N389        N390   1.321       .  A
N389        C393   1.344       .  A
N390        C391   1.345   1_554  A
C391        C392   1.384       .  A
C391        H394   1.082       .  S
C392        C393   1.383   1_556  A
C392       C2077   1.474       .  S
C393        H395   1.082       .  S
N396        N397   1.323       .  A
N396        C400   1.342       .  A
N397        C398   1.347       .  A
C398        C399   1.385       .  A
C398        H401   1.082       .  S
C399        C400   1.382       .  A
C399       C2107   1.477       .  S
C400        H402   1.082   1_554  S
C403        C404   1.404       .  A
C403        C408   1.403       .  A
C403       C2047   1.483       .  S
C404        C405   1.407       .  A
C404        H409   1.082       .  S
C405        C406   1.407       .  A
C405       C2074   1.492       .  S
C406        C407   1.403       .  A
C406        H410   1.083       .  S
C407        C408   1.403       .  A
C407       C2054   1.481       .  S
C408        H411   1.084       .  S
N412        N413   1.322       .  A
N412        C416   1.347       .  A
N412       Cu420   2.082       .  S
N413        C414   1.341       .  A
N413       Cu419   2.068       .  S
C414        C415   1.385       .  A
C414        H417   1.081       .  S
C415        C416   1.389       .  A
C415       C2034   1.485       .  S
C416        H418   1.082       .  S
Cu419       N422   2.067       .  S
Cu420       N430   2.083       .  S
Cu421       N423   2.068       .  S
Cu421       N429   2.069       .  S
N422        N423   1.319       .  A
N422        C426   1.344       .  A
N423        C424   1.344       .  A
C424        C425   1.388       .  A
C424        H427   1.081       .  S
C425        C426   1.388       .  A
C425       C2057   1.485       .  S
C426        H428   1.081       .  S
N429        N430   1.321       .  A
N429        C433   1.342       .  A
N430        C431   1.347       .  A
C431        C432   1.390       .  A
C431        H434   1.081       .  S
C432        C433   1.387       .  A
C432       C2314   1.488       .  S
C433        H435   1.080       .  S
N436        N437   1.322       .  A
N436        C440   1.348       .  A
N436       Cu444   2.090       .  S
N437        C438   1.341       .  A
N437       Cu443   2.068       .  S
C438        C439   1.386       .  A
C438        H441   1.081       .  S
C439        C440   1.392       .  A
C439       C2667   1.490       .  S
C440        H442   1.080       .  S
Cu443       N446   2.067       .  S
Cu444       N454   2.090       .  S
Cu445       N447   2.068       .  S
Cu445       N453   2.068       .  S
N446        N447   1.319       .  A
N446        C450   1.344       .  A
N447        C448   1.344       .  A
C448        C449   1.388       .  A
C448        H451   1.081       .  S
C449        C450   1.388       .  A
C449       C2044   1.484       .  S
C450        H452   1.081       .  S
N453        N454   1.322       .  A
N453        C457   1.342       .  A
N454        C455   1.348       .  A
C455        C456   1.389       .  A
C455        H458   1.082       .  S
C456        C457   1.384       .  A
C456       C2024   1.485       .  S
C457        H459   1.081       .  S
N460        N461   1.323       .  A
N460        C464   1.346       .  A
N460       Cu468   2.078       .  S
N461        C462   1.342       .  A
N461       Cu467   2.066       .  S
C462        C463   1.382       .  A
C462        H465   1.082       .  S
C463        C464   1.385       .  A
C463       C2004   1.476       .  S
C464        H466   1.082       .  S
Cu467       N470   2.065       .  S
Cu468       N478   2.077       .  S
Cu469       N471   2.061       .  S
Cu469       N477   2.061       .  S
N470        N471   1.319       .  A
N470        C474   1.343       .  A
N471        C472   1.342   1_556  A
C472        C473   1.386       .  A
C472        H475   1.081       .  S
C473        C474   1.387   1_554  A
C473       C2014   1.481       .  S
C474        H476   1.082       .  S
N477        N478   1.321       .  A
N477        C481   1.340       .  A
N478        C479   1.346       .  A
C479        C480   1.389       .  A
C479        H482   1.081       .  S
C480        C481   1.385       .  A
C480       C2117   1.484       .  S
C481        H483   1.081   1_556  S
N484        N485   1.319       .  A
N484        C488   1.346       .  A
N484       Cu492   2.081       .  S
N485        C486   1.339       .  A
N485       Cu491   2.061       .  S
C486        C487   1.389       .  A
C486        H489   1.077       .  S
C487        C488   1.394       .  A
C487       C2797   1.494       .  S
C488        H490   1.081       .  S
Cu491       N494   2.060       .  S
Cu492       N502   2.082       .  S
Cu493       N495   2.066       .  S
Cu493       N501   2.068       .  S
N494        N495   1.320       .  A
N494        C498   1.343       .  A
N495        C496   1.345       .  A
C496        C497   1.384       .  A
C496        H499   1.082       .  S
C497        C498   1.382       .  A
C497       C1994   1.473       .  S
C498        H500   1.082       .  S
N501        N502   1.322       .  A
N501        C505   1.341       .  A
N502        C503   1.347       .  A
C503        C504   1.390       .  A
C503        H506   1.080       .  S
C504        C505   1.386       .  A
C504       C2367   1.488       .  S
C505        H507   1.081       .  S
C508        C509   1.402       .  A
C508        C513   1.404       .  A
C508       C2017   1.479       .  S
C509        C510   1.398       .  A
C509        H514   1.084       .  S
C510        C511   1.401       .  A
C510       C1984   1.470       .  S
C511        C512   1.405       .  A
C511        H515   1.083       .  S
C512        C513   1.406       .  A
C512       C1997   1.488       .  S
C513        H516   1.083       .  S
N517        N518   1.321       .  A
N517        C521   1.343       .  A
N517       Cu525   2.085       .  S
N518        C519   1.343       .  A
N518       Cu524   2.064       .  S
C519        C520   1.389       .  A
C519        H522   1.079       .  S
C520        C521   1.392       .  A
C520       C1967   1.493       .  S
C521        H523   1.080       .  S
Cu524       N527   2.062       .  S
Cu525       N535   2.085       .  S
Cu526       N528   2.069       .  S
Cu526       N534   2.070       .  S
N527        N528   1.320       .  A
N527        C531   1.342       .  A
N528        C529   1.346       .  A
C529        C530   1.385       .  A
C529        H532   1.082       .  S
C530        C531   1.383       .  A
C530       C1987   1.474       .  S
C531        H533   1.082       .  S
N534        N535   1.320       .  A
N534        C538   1.339       .  A
N535        C536   1.350       .  A
C536        C537   1.396       .  A
C536        H539   1.079       .  S
C537        C538   1.390       .  A
C537       C1974   1.499       .  S
C538        H540   1.079       .  S
C541        C542   1.407   1_556  A
C541        C546   1.406       .  A
C541       C2027   1.484       .  S
C542        C543   1.415   1_655  A
C542       C1924   1.482       .  S
C543        C544   1.424       .  A
C543       C1934   1.486       .  S
C544        C545   1.422   1_554  A
C544       C1977   1.501       .  S
C545        C546   1.415   1_455  A
C545       C1957   1.484       .  S
C546       C1947   1.484       .  S
C547        C548   1.404       .  A
C547        C552   1.403       .  A
C547       C1914   1.483       .  S
C548        C549   1.404       .  A
C548        H553   1.083       .  S
C549        C550   1.404       .  A
C549       C1904   1.483       .  S
C550        C551   1.406       .  A
C550        H554   1.083       .  S
C551        C552   1.405       .  A
C551       C1894   1.489       .  S
C552        H555   1.083       .  S
N556        N557   1.323       .  A
N556        C560   1.348       .  A
N556       Cu564   2.084       .  S
N557        C558   1.342       .  A
N557       Cu563   2.070       .  S
C558        C559   1.383       .  A
C558        H561   1.082       .  S
C559        C560   1.387       .  A
C559       C1887   1.480       .  S
C560        H562   1.082       .  S
Cu563       N566   2.069       .  S
Cu564       N574   2.084       .  S
Cu565       N567   2.068       .  S
Cu565       N573   2.068       .  S
N566        N567   1.320       .  A
N566        C570   1.344       .  A
N567        C568   1.344   1_455  A
C568        C569   1.387       .  A
C568        H571   1.081       .  S
C569        C570   1.387   1_655  A
C569       C1907   1.483       .  S
C570        H572   1.082       .  S
N573        N574   1.322       .  A
N573        C577   1.342       .  A
N574        C575   1.347       .  A
C575        C576   1.389       .  A
C575        H578   1.081       .  S
C576        C577   1.385       .  A
C576       C2297   1.485       .  S
C577        H579   1.081   1_455  S
N580        N581   1.322       .  A
N580        C584   1.347       .  A
N580       Cu588   2.081       .  S
N581        C582   1.343       .  A
N581       Cu587   2.068       .  S
C582        C583   1.383       .  A
C582        H585   1.082       .  S
C583        C584   1.387       .  A
C583       C2687   1.480       .  S
C584        H586   1.082       .  S
Cu587       N590   2.067       .  S
Cu588       N598   2.082       .  S
Cu589       N591   2.071   1_565  S
Cu589       N597   2.072       .  S
N590        N591   1.320   1_565  A
N590        C594   1.344       .  A
N591        C592   1.344       .  A
C592        C593   1.387       .  A
C592        H595   1.081       .  S
C593        C594   1.386   1_545  A
C593       C1917   1.482       .  S
C594        H596   1.082       .  S
N597        N598   1.322       .  A
N597        C601   1.343       .  A
N598        C599   1.347       .  A
C599        C600   1.388       .  A
C599        H602   1.081       .  S
C600        C601   1.385       .  A
C600       C2467   1.485       .  S
C601        H603   1.082   1_565  S
N604        N605   1.320       .  A
N604        C608   1.347       .  A
N604       Cu612   2.082       .  S
N605        C606   1.340       .  A
N605       Cu611   2.063       .  S
C606        C607   1.387       .  A
C606        H609   1.079       .  S
C607        C608   1.392       .  A
C607       C2557   1.490       .  S
C608        H610   1.081       .  S
Cu611       N614   2.062       .  S
Cu612       N622   2.082       .  S
Cu613       N615   2.067       .  S
Cu613       N621   2.068       .  S
N614        N615   1.320       .  A
N614        C618   1.343       .  A
N615        C616   1.345       .  A
C616        C617   1.384       .  A
C616        H619   1.082       .  S
C617        C618   1.382       .  A
C617       C1897   1.473       .  S
C618        H620   1.082       .  S
N621        N622   1.323       .  A
N621        C625   1.342       .  A
N622        C623   1.347       .  A
C623        C624   1.387       .  A
C623        H626   1.082       .  S
C624        C625   1.383       .  A
C624       C1874   1.480       .  S
C625        H627   1.081       .  S
N628        N629   1.321       .  A
N628        C632   1.347       .  A
N628       Cu636   2.082       .  S
N629        C630   1.341       .  A
N629       Cu635   2.065       .  S
C630        C631   1.386       .  A
C630        H633   1.081       .  S
C631        C632   1.391       .  A
C631       C1857   1.487       .  S
C632        H634   1.080       .  S
Cu635       N638   2.064       .  S
Cu636       N646   2.082       .  S
Cu637       N639   2.067       .  S
Cu637       N645   2.068       .  S
N638        N639   1.320       .  A
N638        C642   1.344       .  A
N639        C640   1.345   1_655  A
C640        C641   1.384       .  A
C640        H643   1.082       .  S
C641        C642   1.383   1_455  A
C641       C1867   1.473       .  S
C642        H644   1.082       .  S
N645        N646   1.321       .  A
N645        C649   1.342       .  A
N646        C647   1.346       .  A
C647        C648   1.391       .  A
C647        H650   1.081       .  S
C648        C649   1.387       .  A
C648       C1847   1.489       .  S
C649        H651   1.079   1_655  S
N652        N653   1.322       .  A
N652        C656   1.346       .  A
N652       Cu660   2.082       .  S
N653        C654   1.342       .  A
N653       Cu659   2.069       .  S
C654        C655   1.385       .  A
C654        H657   1.081       .  S
C655        C656   1.389       .  A
C655       C1824   1.485       .  S
C656        H658   1.081       .  S
Cu659       N662   2.068       .  S
Cu660       N670   2.081       .  S
Cu661       N663   2.064       .  S
Cu661       N669   2.064       .  S
N662        N663   1.319       .  A
N662        C666   1.344       .  A
N663        C664   1.343   1_556  A
C664        C665   1.388       .  A
C664        H667   1.081       .  S
C665        C666   1.388   1_554  A
C665       C1834   1.485       .  S
C666        H668   1.082       .  S
N669        N670   1.322       .  A
N669        C673   1.341       .  A
N670        C671   1.348       .  A
C671        C672   1.386       .  A
C671        H674   1.082       .  S
C672        C673   1.381       .  A
C672       C1954   1.476       .  S
C673        H675   1.082   1_556  S
C676        C677   1.406       .  A
C676        C681   1.406       .  A
C676       C1814   1.490       .  S
C677        C678   1.407       .  A
C677        H682   1.081       .  S
C678        C679   1.405       .  A
C678       C1864   1.491       .  S
C679        C680   1.403       .  A
C679        H683   1.083       .  S
C680        C681   1.403       .  A
C680       C1837   1.485       .  S
C681        H684   1.083       .  S
N685        N686   1.323       .  A
N685        C689   1.347       .  A
N685       Cu693   2.083       .  S
N686        C687   1.342       .  A
N686       Cu692   2.072       .  S
C687        C688   1.385       .  A
C687        H690   1.082       .  S
C688        C689   1.388       .  A
C688       C1804   1.484       .  S
C689        H691   1.081       .  S
Cu692       N695   2.071       .  S
Cu693       N703   2.083       .  S
Cu694       N696   2.063   1_565  S
Cu694       N702   2.064       .  S
N695        N696   1.321   1_565  A
N695        C699   1.345   1_565  A
N696        C697   1.343       .  A
C697        C698   1.382       .  A
C697        H700   1.082       .  S
C698        C699   1.384       .  A
C698       C1817   1.474       .  S
C699        H701   1.082   1_545  S
N702        N703   1.322       .  A
N702        C706   1.342       .  A
N703        C704   1.347       .  A
C704        C705   1.388       .  A
C704        H707   1.082       .  S
C705        C706   1.383       .  A
C705       C2094   1.481       .  S
C706        H708   1.081   1_565  S
C709        C710   1.413       .  A
C709        C714   1.412       .  A
C709       C2164   1.483       .  S
C710        C711   1.412       .  A
C710       C2597   1.484       .  S
C711        C712   1.411       .  A
C711       C2037   1.481       .  S
C712        C713   1.410       .  A
C712       C1797   1.482       .  S
C713        C714   1.411       .  A
C713       C1827   1.481       .  S
C714       C1884   1.483       .  S
C715        C716   1.410       .  A
C715        C720   1.411       .  A
C715       C2067   1.481       .  S
C716        C717   1.410       .  A
C716       C2624   1.479       .  S
C717        C718   1.410       .  A
C717       C1784   1.481       .  S
C718        C719   1.411       .  A
C718       C1877   1.481       .  S
C719        C720   1.411       .  A
C719       C1854   1.481       .  S
C720       C1774   1.480       .  S
N721        N722   1.322       .  A
N721        C725   1.347       .  A
N721       Cu729   2.081       .  S
N722        C723   1.343       .  A
N722       Cu728   2.069       .  S
C723        C724   1.384       .  A
C723        H726   1.082   1_554  S
C724        C725   1.387       .  A
C724       C2307   1.481       .  S
C725        H727   1.082       .  S
Cu728       N731   2.069       .  S
Cu729       N739   2.081       .  S
Cu730       N732   2.067       .  S
Cu730       N738   2.067       .  S
N731        N732   1.321       .  A
N731        C735   1.344   1_554  A
N732        C733   1.344       .  A
C733        C734   1.383   1_554  A
C733        H736   1.082       .  S
C734        C735   1.384       .  A
C734       C1764   1.475       .  S
C735        H737   1.082       .  S
N738        N739   1.322       .  A
N738        C742   1.342       .  A
N739        C740   1.347       .  A
C740        C741   1.388       .  A
C740        H743   1.082       .  S
C741        C742   1.385       .  A
C741       C1757   1.484       .  S
C742        H744   1.081       .  S
C745        C746   1.406       .  A
C745        C750   1.406       .  A
C745       C1767   1.489       .  S
C746        C747   1.403       .  A
C746        H751   1.083       .  S
C747        C748   1.402       .  A
C747       C1747   1.481       .  S
C748        C749   1.403       .  A
C748        H752   1.084       .  S
C749        C750   1.404       .  A
C749       C1734   1.481       .  S
C750        H753   1.083       .  S
N754        N755   1.321       .  A
N754        C758   1.348       .  A
N754       Cu762   2.086       .  S
N755        C756   1.341       .  A
N755       Cu761   2.064       .  S
C756        C757   1.385       .  A
C756        H759   1.080   1_655  S
C757        C758   1.391       .  A
C757       C2524   1.487       .  S
C758        H760   1.081       .  S
Cu761       N764   2.063   1_655  S
Cu762       N772   2.086       .  S
Cu763       N765   2.067       .  S
Cu763       N771   2.068       .  S
N764        N765   1.319   1_455  A
N764        C768   1.343       .  A
N765        C766   1.344       .  A
C766        C767   1.388   1_655  A
C766        H769   1.082       .  S
C767        C768   1.387       .  A
C767       C1744   1.483       .  S
C768        H770   1.081       .  S
N771        N772   1.323       .  A
N771        C775   1.342       .  A
N772        C773   1.348       .  A
C773        C774   1.387       .  A
C773        H776   1.082       .  S
C774        C775   1.383       .  A
C774       C2707   1.480       .  S
C775        H777   1.082       .  S
N778        N779   1.321       .  A
N778        C782   1.347       .  A
N778       Cu786   2.083       .  S
N779        C780   1.341       .  A
N779       Cu785   2.064       .  S
C780        C781   1.385       .  A
C780        H783   1.080       .  S
C781        C782   1.390       .  A
C781       C2404   1.486       .  S
C782        H784   1.082       .  S
Cu785       N788   2.064       .  S
Cu786       N796   2.083       .  S
Cu787       N789   2.071       .  S
Cu787       N795   2.072       .  S
N788        N789   1.319       .  A
N788        C792   1.343       .  A
N789        C790   1.345       .  A
C790        C791   1.388       .  A
C790        H793   1.082       .  S
C791        C792   1.386       .  A
C791       C1737   1.483       .  S
C792        H794   1.081       .  S
N795        N796   1.323       .  A
N795        C799   1.343       .  A
N796        C797   1.347       .  A
C797        C798   1.388       .  A
C797        H800   1.081       .  S
C798        C799   1.385       .  A
C798       C1794   1.484       .  S
C799        H801   1.082       .  S
C802        C803   1.411       .  A
C802        C807   1.410       .  A
C802       C1714   1.483       .  S
C803        C804   1.412       .  A
C803       C2577   1.480       .  S
C804        C805   1.411       .  A
C804       C2127   1.481       .  S
C805        C806   1.411       .  A
C805       C1724   1.483       .  S
C806        C807   1.411       .  A
C806       C1807   1.481       .  S
C807       C1754   1.480       .  S
N808        N809   1.322       .  A
N808        C812   1.347       .  A
N808       Cu816   2.081       .  S
N809        C810   1.342       .  A
N809       Cu815   2.066       .  S
C810        C811   1.384       .  A
C810        H813   1.081   1_545  S
C811        C812   1.387       .  A
C811       C2287   1.481       .  S
C812        H814   1.082       .  S
Cu815       N818   2.066   1_545  S
Cu816       N826   2.081       .  S
Cu817       N819   2.066       .  S
Cu817       N825   2.066       .  S
N818        N819   1.320   1_565  A
N818        C822   1.344       .  A
N819        C820   1.344       .  A
C820        C821   1.386   1_545  A
C820        H823   1.081       .  S
C821        C822   1.386       .  A
C821       C1704   1.480       .  S
C822        H824   1.082       .  S
N825        N826   1.322       .  A
N825        C829   1.342       .  A
N826        C827   1.347       .  A
C827        C828   1.389       .  A
C827        H830   1.081       .  S
C828        C829   1.384       .  A
C828       C1777   1.483       .  S
C829        H831   1.082       .  S
C832        C833   1.404       .  A
C832        C837   1.403       .  A
C832       C1684   1.482       .  S
C833        C834   1.405       .  A
C833        H838   1.083       .  S
C834        C835   1.404       .  A
C834       C1694   1.484       .  S
C835        C836   1.404       .  A
C835        H839   1.083       .  S
C836        C837   1.403       .  A
C836       C1707   1.482       .  S
C837        H840   1.084       .  S
N841        N842   1.321       .  A
N841        C845   1.348       .  A
N841       Cu849   2.087       .  S
N842        C843   1.342       .  A
N842       Cu848   2.069       .  S
C843        C844   1.387       .  A
C843        H846   1.080   1_556  S
C844        C845   1.392       .  A
C844       C2374   1.491       .  S
C845        H847   1.082       .  S
Cu848       N851   2.068   1_556  S
Cu849       N859   2.087       .  S
Cu850       N852   2.064       .  S
Cu850       N858   2.065       .  S
N851        N852   1.319   1_554  A
N851        C855   1.344       .  A
N852        C853   1.344       .  A
C853        C854   1.387   1_556  A
C853        H856   1.081       .  S
C854        C855   1.387       .  A
C854       C1697   1.483       .  S
C855        H857   1.082       .  S
N858        N859   1.323       .  A
N858        C862   1.341       .  A
N859        C860   1.348       .  A
C860        C861   1.387       .  A
C860        H863   1.082       .  S
C861        C862   1.381       .  A
C861       C2694   1.479       .  S
C862        H864   1.082       .  S
N865        N866   1.323       .  A
N865        C869   1.347       .  A
N865       Cu873   2.085       .  S
N866        C867   1.344       .  A
N866       Cu872   2.071       .  S
C867        C868   1.382       .  A
C867        H870   1.082       .  S
C868        C869   1.386       .  A
C868       C2487   1.477       .  S
C869        H871   1.082       .  S
Cu872       N875   2.070       .  S
Cu873       N883   2.085       .  S
Cu874       N876   2.067       .  S
Cu874       N882   2.068       .  S
N875        N876   1.320       .  A
N875        C879   1.344       .  A
N876        C877   1.344       .  A
C877        C878   1.385       .  A
C877        H880   1.082       .  S
C878        C879   1.386       .  A
C878       C1687   1.481       .  S
C879        H881   1.081       .  S
N882        N883   1.322       .  A
N882        C886   1.342       .  A
N883        C884   1.348       .  A
C884        C885   1.389       .  A
C884        H887   1.082       .  S
C885        C886   1.385       .  A
C885       C1727   1.485       .  S
C886        H888   1.081       .  S
C889        C890   1.406       .  A
C889        C894   1.404       .  A
C889       C1654   1.487       .  S
C890        C891   1.404       .  A
C890        H895   1.083       .  S
C891        C892   1.402       .  A
C891       C1674   1.479       .  S
C892        C893   1.401       .  A
C892        H896   1.084       .  S
C893        C894   1.401       .  A
C893       C1664   1.477       .  S
C894        H897   1.083       .  S
N898        N899   1.323       .  A
N898        C902   1.349       .  A
N898       Cu906   2.090       .  S
N899        C900   1.342       .  A
N899       Cu905   2.069       .  S
C900        C901   1.383       .  A
C900        H903   1.082       .  S
C901        C902   1.389       .  A
C901       C1717   1.484       .  S
C902        H904   1.082       .  S
Cu905       N908   2.068       .  S
Cu906       N916   2.089       .  S
Cu907       N909   2.056   1_455  S
Cu907       N915   2.057       .  S
N908        N909   1.319   1_455  A
N908        C912   1.345       .  A
N909        C910   1.341       .  A
C910        C911   1.385       .  A
C910        H913   1.082       .  S
C911        C912   1.388   1_655  A
C911       C1667   1.481       .  S
C912        H914   1.081       .  S
N915        N916   1.322       .  A
N915        C919   1.342       .  A
N916        C917   1.347       .  A
C917        C918   1.387       .  A
C917        H920   1.082       .  S
C918        C919   1.381       .  A
C918       C1937   1.477       .  S
C919        H921   1.082   1_455  S
N922        N923   1.321       .  A
N922        C926   1.347       .  A
N922       Cu930   2.082       .  S
N923        C924   1.341       .  A
N923       Cu929   2.062       .  S
C924        C925   1.386       .  A
C924        H927   1.080       .  S
C925        C926   1.391       .  A
C925       C2657   1.487       .  S
C926        H928   1.081       .  S
Cu929       N932   2.061       .  S
Cu930       N940   2.083       .  S
Cu931       N933   2.069       .  S
Cu931       N939   2.070       .  S
N932        N933   1.320       .  A
N932        C936   1.343       .  A
N933        C934   1.345       .  A
C934        C935   1.384       .  A
C934        H937   1.082       .  S
C935        C936   1.381       .  A
C935       C1657   1.471       .  S
C936        H938   1.082       .  S
N939        N940   1.322       .  A
N939        C943   1.342       .  A
N940        C941   1.347       .  A
C941        C942   1.388       .  A
C941        H944   1.081       .  S
C942        C943   1.384       .  A
C942       C1644   1.484       .  S
C943        H945   1.082       .  S
N946        N947   1.322       .  A
N946        C950   1.347       .  A
N946       Cu954   2.084       .  S
N947        C948   1.341       .  A
N947       Cu953   2.064       .  S
C948        C949   1.384       .  A
C948        H951   1.081       .  S
C949        C950   1.389       .  A
C949       C1787   1.484       .  S
C950        H952   1.082       .  S
Cu953       N956   2.064       .  S
Cu954       N964   2.084       .  S
Cu955       N957   2.065       .  S
Cu955       N963   2.066       .  S
N956        N957   1.319       .  A
N956        C960   1.343       .  A
N957        C958   1.343       .  A
C958        C959   1.387       .  A
C958        H961   1.082       .  S
C959        C960   1.387       .  A
C959       C1677   1.482       .  S
C960        H962   1.081       .  S
N963        N964   1.322       .  A
N963        C967   1.341       .  A
N964        C965   1.347       .  A
C965        C966   1.388       .  A
C965        H968   1.082       .  S
C966        C967   1.383       .  A
C966       C2327   1.482       .  S
C967        H969   1.081       .  S
N970        N971   1.322       .  A
N970        C974   1.346       .  A
N970       Cu978   2.081       .  S
N971        C972   1.342       .  A
N971       Cu977   2.068       .  S
C972        C973   1.386       .  A
C972        H975   1.081   1_655  S
C973        C974   1.390       .  A
C973       C2267   1.487       .  S
C974        H976   1.080       .  S
Cu977       N980   2.068   1_655  S
Cu978       N988   2.081       .  S
Cu979       N981   2.062       .  S
Cu979       N987   2.062       .  S
N980        N981   1.320   1_455  A
N980        C984   1.344       .  A
N981        C982   1.343       .  A
C982        C983   1.385   1_655  A
C982        H985   1.081       .  S
C983        C984   1.386       .  A
C983       C1634   1.480       .  S
C984        H986   1.082       .  S
N987        N988   1.322       .  A
N987        C991   1.342       .  A
N988        C989   1.347       .  A
C989        C990   1.387       .  A
C989        H992   1.082       .  S
C990        C991   1.382       .  A
C990       C2817   1.478       .  S
C991        H993   1.082       .  S
C994        C995   1.406       .  A
C994        C999   1.406       .  A
C994       C1624   1.488       .  S
C995        C996   1.403       .  A
C995       H1000   1.083       .  S
C996        C997   1.401       .  A
C996       C1637   1.479       .  S
C997        C998   1.401       .  A
C997       H1001   1.084       .  S
C998        C999   1.403       .  A
C998       C1614   1.478       .  S
C999       H1002   1.083       .  S
N1003      N1004   1.322       .  A
N1003      C1007   1.349       .  A
N1003     Cu1011   2.090       .  S
N1004      C1005   1.343       .  A
N1004     Cu1010   2.072       .  S
C1005      C1006   1.385       .  A
C1005      H1008   1.081       .  S
C1006      C1007   1.391       .  A
C1006      C1607   1.488       .  S
C1007      H1009   1.081       .  S
Cu1010     N1013   2.071       .  S
Cu1011     N1021   2.090       .  S
Cu1012     N1014   2.063   1_545  S
Cu1012     N1020   2.065       .  S
N1013      N1014   1.320   1_545  A
N1013      C1017   1.345       .  A
N1014      C1015   1.342       .  A
C1015      C1016   1.385       .  A
C1015      H1018   1.081       .  S
C1016      C1017   1.387   1_565  A
C1016      C1617   1.481       .  S
C1017      H1019   1.082       .  S
N1020      N1021   1.320       .  A
N1020      C1024   1.343       .  A
N1021      C1022   1.346       .  A
C1022      C1023   1.396       .  A
C1022      H1025   1.078       .  S
C1023      C1024   1.390       .  A
C1023      C2507   1.498       .  S
C1024      H1026   1.081   1_545  S
N1027      N1028   1.322       .  A
N1027      C1031   1.346       .  A
N1027     Cu1035   2.078       .  S
N1028      C1029   1.342       .  A
N1028     Cu1034   2.068       .  S
C1029      C1030   1.383       .  A
C1029      H1032   1.082       .  S
C1030      C1031   1.387       .  A
C1030      C2514   1.479       .  S
C1031      H1033   1.081       .  S
Cu1034     N1037   2.067       .  S
Cu1035     N1045   2.078       .  S
Cu1036     N1038   2.065       .  S
Cu1036     N1044   2.065       .  S
N1037      N1038   1.321       .  A
N1037      C1041   1.344       .  A
N1038      C1039   1.344       .  A
C1039      C1040   1.383       .  A
C1039      H1042   1.082       .  S
C1040      C1041   1.383       .  A
C1040      C1627   1.472       .  S
C1041      H1043   1.082       .  S
N1044      N1045   1.321       .  A
N1044      C1048   1.341       .  A
N1045      C1046   1.346       .  A
C1046      C1047   1.391       .  A
C1046      H1049   1.080       .  S
C1047      C1048   1.387       .  A
C1047      C1597   1.488       .  S
C1048      H1050   1.081       .  S
N1051      N1052   1.321       .  A
N1051      C1055   1.347       .  A
N1051     Cu1059   2.081       .  S
N1052      C1053   1.341       .  A
N1052     Cu1058   2.064       .  S
C1053      C1054   1.386       .  A
C1053      H1056   1.080       .  S
C1054      C1055   1.391       .  A
C1054      C1574   1.487       .  S
C1055      H1057   1.081       .  S
Cu1058     N1061   2.063       .  S
Cu1059     N1069   2.082       .  S
Cu1060     N1062   2.069       .  S
Cu1060     N1068   2.070       .  S
N1061      N1062   1.320       .  A
N1061      C1065   1.343       .  A
N1062      C1063   1.345   1_565  A
C1063      C1064   1.383       .  A
C1063      H1066   1.082       .  S
C1064      C1065   1.382   1_545  A
C1064      C1584   1.472       .  S
C1065      H1067   1.082       .  S
N1068      N1069   1.322       .  A
N1068      C1072   1.342       .  A
N1069      C1070   1.347       .  A
C1070      C1071   1.389       .  A
C1070      H1073   1.081       .  S
C1071      C1072   1.385       .  A
C1071      C2257   1.485       .  S
C1072      H1074   1.082   1_565  S
C1075      C1076   1.407       .  A
C1075      C1080   1.406       .  A
C1075      C1554   1.490       .  S
C1076      C1077   1.406       .  A
C1076      H1081   1.081       .  S
C1077      C1078   1.405       .  A
C1077      C1587   1.489       .  S
C1078      C1079   1.402       .  A
C1078      H1082   1.083       .  S
C1079      C1080   1.404       .  A
C1079      C1564   1.482       .  S
C1080      H1083   1.083       .  S
N1084      N1085   1.323       .  A
N1084      C1088   1.348       .  A
N1084     Cu1092   2.093       .  S
N1085      C1086   1.346       .  A
N1085     Cu1091   2.077       .  S
C1086      C1087   1.383       .  A
C1086      H1089   1.082       .  S
C1087      C1088   1.387       .  A
C1087      C1547   1.481       .  S
C1088      H1090   1.082       .  S
Cu1091     N1094   2.077       .  S
Cu1092     N1102   2.093       .  S
Cu1093     N1095   2.072       .  S
Cu1093     N1101   2.073       .  S
N1094      N1095   1.322       .  A
N1094      C1098   1.344   1_554  A
N1095      C1096   1.346   1_554  A
C1096      C1097   1.385       .  A
C1096      H1099   1.082       .  S
C1097      C1098   1.385       .  A
C1097      C1557   1.479       .  S
C1098      H1100   1.082   1_556  S
N1101      N1102   1.322       .  A
N1101      C1105   1.344       .  A
N1102      C1103   1.349       .  A
C1103      C1104   1.391       .  A
C1103      H1106   1.081       .  S
C1104      C1105   1.385       .  A
C1104      C2394   1.489       .  S
C1105      H1107   1.082       .  S
N1108      N1109   1.322       .  A
N1108      C1112   1.348       .  A
N1108     Cu1116   2.084       .  S
N1109      C1110   1.342       .  A
N1109     Cu1115   2.066       .  S
C1110      C1111   1.382       .  A
C1110      H1113   1.082       .  S
C1111      C1112   1.387       .  A
C1111      C2727   1.479       .  S
C1112      H1114   1.082       .  S
Cu1115     N1118   2.065       .  S
Cu1116     N1126   2.085       .  S
Cu1117     N1119   2.070       .  S
Cu1117     N1125   2.070       .  S
N1118      N1119   1.320       .  A
N1118      C1122   1.343       .  A
N1119      C1120   1.345       .  A
C1120      C1121   1.387       .  A
C1120      H1123   1.082       .  S
C1121      C1122   1.386       .  A
C1121      C1567   1.482       .  S
C1122      H1124   1.081       .  S
N1125      N1126   1.323       .  A
N1125      C1129   1.342       .  A
N1126      C1127   1.348       .  A
C1127      C1128   1.388       .  A
C1127      H1130   1.081       .  S
C1128      C1129   1.383       .  A
C1128      C2477   1.482       .  S
C1129      H1131   1.082       .  S
C1132      C1133   1.411       .  A
C1132      C1137   1.411   1_655  A
C1132      C1647   1.481       .  S
C1133      C1134   1.411   1_565  A
C1133      C2237   1.480       .  S
C1134      C1135   1.410   1_655  A
C1134      C1844   1.481       .  S
C1135      C1136   1.410       .  A
C1135      C1534   1.482       .  S
C1136      C1137   1.411   1_545  A
C1136      C2177   1.479       .  S
C1137      C1524   1.482       .  S
N1138      N1139   1.322       .  A
N1138      C1142   1.347       .  A
N1138     Cu1146   2.087       .  S
N1139      C1140   1.342       .  A
N1139     Cu1145   2.067       .  S
C1140      C1141   1.385       .  A
C1140      H1143   1.081   1_655  S
C1141      C1142   1.391       .  A
C1141      C1944   1.488       .  S
C1142      H1144   1.081       .  S
Cu1145     N1148   2.067   1_655  S
Cu1146     N1156   2.087       .  S
Cu1147     N1149   2.067       .  S
Cu1147     N1155   2.068       .  S
N1148      N1149   1.319   1_455  A
N1148      C1152   1.344       .  A
N1149      C1150   1.343       .  A
C1150      C1151   1.387   1_655  A
C1150      H1153   1.082       .  S
C1151      C1152   1.387       .  A
C1151      C1514   1.483       .  S
C1152      H1154   1.081       .  S
N1155      N1156   1.321       .  A
N1155      C1159   1.342       .  A
N1156      C1157   1.348       .  A
C1157      C1158   1.392       .  A
C1157      H1160   1.081       .  S
C1158      C1159   1.387       .  A
C1158      C2767   1.490       .  S
C1159      H1161   1.080       .  S
C1162      C1163   1.406       .  A
C1162      C1167   1.406       .  A
C1162      C1494   1.490       .  S
C1163      C1164   1.403       .  A
C1163      H1168   1.083       .  S
C1164      C1165   1.403       .  A
C1164      C1517   1.481       .  S
C1165      C1166   1.403       .  A
C1165      H1169   1.083       .  S
C1166      C1167   1.405       .  A
C1166      C1504   1.484       .  S
C1167      H1170   1.083       .  S
N1171      N1172   1.322       .  A
N1171      C1175   1.348       .  A
N1171     Cu1179   2.086       .  S
N1172      C1173   1.342       .  A
N1172     Cu1178   2.067       .  S
C1173      C1174   1.384       .  A
C1173      H1176   1.081       .  S
C1174      C1175   1.388       .  A
C1174      C1537   1.483       .  S
C1175      H1177   1.082       .  S
Cu1178     N1181   2.067       .  S
Cu1179     N1189   2.086       .  S
Cu1180     N1182   2.067       .  S
Cu1180     N1188   2.068       .  S
N1181      N1182   1.320       .  A
N1181      C1185   1.344       .  A
N1182      C1183   1.344       .  A
C1183      C1184   1.384       .  A
C1183      H1186   1.082       .  S
C1184      C1185   1.384       .  A
C1184      C1497   1.475       .  S
C1185      H1187   1.082       .  S
N1188      N1189   1.322       .  A
N1188      C1192   1.342       .  A
N1189      C1190   1.348       .  A
C1190      C1191   1.389       .  A
C1190      H1193   1.082       .  S
C1191      C1192   1.384       .  A
C1191      C1487   1.484       .  S
C1192      H1194   1.081       .  S
N1195      N1196   1.323       .  A
N1195      C1199   1.347       .  A
N1195     Cu1203   2.083       .  S
N1196      C1197   1.342       .  A
N1196     Cu1202   2.068       .  S
C1197      C1198   1.382       .  A
C1197      H1200   1.082       .  S
C1198      C1199   1.386       .  A
C1198      C1474   1.478       .  S
C1199      H1201   1.082       .  S
Cu1202     N1205   2.067       .  S
Cu1203     N1213   2.083       .  S
Cu1204     N1206   2.064       .  S
Cu1204     N1212   2.064       .  S
N1205      N1206   1.319       .  A
N1205      C1209   1.344       .  A
N1206      C1207   1.343       .  A
C1207      C1208   1.386       .  A
C1207      H1210   1.081       .  S
C1208      C1209   1.387       .  A
C1208      C1507   1.481       .  S
C1209      H1211   1.082       .  S
N1212      N1213   1.322       .  A
N1212      C1216   1.341       .  A
N1213      C1214   1.348       .  A
C1214      C1215   1.388       .  A
C1214      H1217   1.082       .  S
C1215      C1216   1.383       .  A
C1215      C2357   1.480       .  S
C1216      H1218   1.081       .  S
C1219      C1220   1.409       .  A
C1219      C1224   1.412       .  A
C1219      C1484   1.485       .  S
C1220      C1221   1.413       .  A
C1220      C1604   1.487       .  S
C1221      C1222   1.417       .  A
C1221      C2194   1.479       .  S
C1222      C1223   1.421       .  A
C1222      C1544   1.499       .  S
C1223      C1224   1.418       .  A
C1223      C1964   1.491       .  S
C1224      C1467   1.484       .  S
C1225      C1226   1.406       .  A
C1225      C1230   1.404       .  A
C1225      C1454   1.484       .  S
C1226      C1227   1.406       .  A
C1226      H1231   1.083       .  S
C1227      C1228   1.404       .  A
C1227      C1447   1.484       .  S
C1228      C1229   1.400       .  A
C1228      H1232   1.084       .  S
C1229      C1230   1.399       .  A
C1229      C1434   1.470       .  S
C1230      H1233   1.084       .  S
N1234      N1235   1.323       .  A
N1234      C1238   1.347       .  A
N1234     Cu1242   2.082       .  S
N1235      C1236   1.342       .  A
N1235     Cu1241   2.068       .  S
C1236      C1237   1.382       .  A
C1236      H1239   1.082       .  S
C1237      C1238   1.387       .  A
C1237      C2757   1.478       .  S
C1238      H1240   1.082       .  S
Cu1241     N1244   2.068       .  S
Cu1242     N1252   2.082       .  S
Cu1243     N1245   2.067   1_556  S
Cu1243     N1251   2.068       .  S
N1244      N1245   1.321   1_556  A
N1244      C1248   1.344       .  A
N1245      C1246   1.345       .  A
C1246      C1247   1.382       .  A
C1246      H1249   1.082       .  S
C1247      C1248   1.382   1_554  A
C1247      C1437   1.471       .  S
C1248      H1250   1.082       .  S
N1251      N1252   1.323       .  A
N1251      C1255   1.342       .  A
N1252      C1253   1.347       .  A
C1253      C1254   1.387       .  A
C1253      H1256   1.082       .  S
C1254      C1255   1.383       .  A
C1254      C2277   1.479       .  S
C1255      H1257   1.082   1_556  S
N1258      N1259   1.322       .  A
N1258      C1262   1.348       .  A
N1258     Cu1266   2.081       .  S
N1259      C1260   1.342       .  A
N1259     Cu1265   2.072       .  S
C1260      C1261   1.384       .  A
C1260      H1263   1.082       .  S
C1261      C1262   1.386       .  A
C1261      C1464   1.480       .  S
C1262      H1264   1.082       .  S
Cu1265     N1268   2.071       .  S
Cu1266     N1276   2.081       .  S
Cu1267     N1269   2.069       .  S
Cu1267     N1275   2.070       .  S
N1268      N1269   1.320       .  A
N1268      C1272   1.345       .  A
N1269      C1270   1.344   1_455  A
C1270      C1271   1.386       .  A
C1270      H1273   1.082       .  S
C1271      C1272   1.387   1_655  A
C1271      C1444   1.482       .  S
C1272      H1274   1.082       .  S
N1275      N1276   1.323       .  A
N1275      C1279   1.343       .  A
N1276      C1277   1.347       .  A
C1277      C1278   1.386       .  A
C1277      H1280   1.082       .  S
C1278      C1279   1.383       .  A
C1278      C2544   1.479       .  S
C1279      H1281   1.082   1_455  S
N1282      N1283   1.323       .  A
N1282      C1286   1.348       .  A
N1282     Cu1290   2.088       .  S
N1283      C1284   1.342       .  A
N1283     Cu1289   2.067       .  S
C1284      C1285   1.382       .  A
C1284      H1287   1.082       .  S
C1285      C1286   1.388       .  A
C1285      C2777   1.480       .  S
C1286      H1288   1.082       .  S
Cu1289     N1292   2.066       .  S
Cu1290     N1300   2.088       .  S
Cu1291     N1293   2.068       .  S
Cu1291     N1299   2.069       .  S
N1292      N1293   1.320       .  A
N1292      C1296   1.344       .  A
N1293      C1294   1.344       .  A
C1294      C1295   1.386       .  A
C1294      H1297   1.082       .  S
C1295      C1296   1.386       .  A
C1295      C1457   1.481       .  S
C1296      H1298   1.081       .  S
N1299      N1300   1.323       .  A
N1299      C1303   1.342       .  A
N1300      C1301   1.348       .  A
C1301      C1302   1.387       .  A
C1301      H1304   1.082       .  S
C1302      C1303   1.382       .  A
C1302      C2384   1.479       .  S
C1303      H1305   1.082       .  S
C1306      C1307   1.403       .  A
C1306      C1311   1.403       .  A
C1306      C1424   1.481       .  S
C1307      C1308   1.405       .  A
C1307      H1312   1.083       .  S
C1308      C1309   1.404       .  A
C1308      C1414   1.484       .  S
C1309      C1310   1.403       .  A
C1309      H1313   1.083       .  S
C1310      C1311   1.403       .  A
C1310      C1404   1.480       .  S
C1311      H1314   1.084       .  S
N1315      N1316   1.321       .  A
N1315      C1319   1.347       .  A
N1315     Cu1323   2.083       .  S
N1316      C1317   1.341       .  A
N1316     Cu1322   2.065       .  S
C1317      C1318   1.385       .  A
C1317      H1320   1.081   1_455  S
C1318      C1319   1.390       .  A
C1318      C1527   1.485       .  S
C1319      H1321   1.081       .  S
Cu1322     N1325   2.064   1_455  S
Cu1323     N1333   2.083       .  S
Cu1324     N1326   2.067       .  S
Cu1324     N1332   2.068       .  S
N1325      N1326   1.320   1_655  A
N1325      C1329   1.343       .  A
N1326      C1327   1.344       .  A
C1327      C1328   1.386   1_455  A
C1327      H1330   1.082       .  S
C1328      C1329   1.386       .  A
C1328      C1427   1.480       .  S
C1329      H1331   1.081       .  S
N1332      N1333   1.323       .  A
N1332      C1336   1.342       .  A
N1333      C1334   1.347       .  A
C1334      C1335   1.386       .  A
C1334      H1337   1.082       .  S
C1335      C1336   1.382       .  A
C1335      C1397   1.479       .  S
C1336      H1338   1.082       .  S
N1339      N1340   1.321       .  A
N1339      C1343   1.347       .  A
N1339     Cu1347   2.082       .  S
N1340      C1341   1.341       .  A
N1340     Cu1346   2.066       .  S
C1341      C1342   1.387       .  A
C1341      H1344   1.081   1_545  S
C1342      C1343   1.392       .  A
C1342      C2084   1.491       .  S
C1343      H1345   1.080       .  S
Cu1346     N1349   2.065   1_545  S
Cu1347     N1357   2.082       .  S
Cu1348     N1350   2.066       .  S
Cu1348     N1356   2.066       .  S
N1349      N1350   1.319   1_565  A
N1349      C1353   1.344       .  A
N1350      C1351   1.343       .  A
C1351      C1352   1.387   1_545  A
C1351      H1354   1.082       .  S
C1352      C1353   1.387       .  A
C1352      C1407   1.482       .  S
C1353      H1355   1.081       .  S
N1356      N1357   1.321       .  A
N1356      C1360   1.341       .  A
N1357      C1358   1.347       .  A
C1358      C1359   1.390       .  A
C1358      H1361   1.081       .  S
C1359      C1360   1.386       .  A
C1359      C2717   1.487       .  S
C1360      H1362   1.080       .  S
N1363      N1364   1.321       .  A
N1363      C1367   1.347       .  A
N1363     Cu1371   2.081       .  S
N1364      C1365   1.341       .  A
N1364     Cu1370   2.063       .  S
C1365      C1366   1.385       .  A
C1365      H1368   1.081   1_554  S
C1366      C1367   1.389       .  A
C1366      C1927   1.484       .  S
C1367      H1369   1.082       .  S
Cu1370     N1373   2.063   1_554  S
Cu1371     N1381   2.081       .  S
Cu1372     N1374   2.068       .  S
Cu1372     N1380   2.069       .  S
N1373      N1374   1.319   1_556  A
N1373      C1377   1.343       .  A
N1374      C1375   1.344       .  A
C1375      C1376   1.388   1_554  A
C1375      H1378   1.082       .  S
C1376      C1377   1.387       .  A
C1376      C1417   1.483       .  S
C1377      H1379   1.081       .  S
N1380      N1381   1.321       .  A
N1380      C1384   1.341       .  A
N1381      C1382   1.346       .  A
C1382      C1383   1.391       .  A
C1382      H1385   1.080       .  S
C1383      C1384   1.387       .  A
C1383      C2784   1.490       .  S
C1384      H1386   1.081       .  S
C1387      C1388   1.410       .  A
C1387      C1392   1.410       .  A
C1387      C2007   1.479       .  S
C1388      C1389   1.411       .  A
C1388      C2417   1.483       .  S
C1389      C1390   1.412       .  A
C1389      C1477   1.482       .  S
C1390      C1391   1.412       .  A
C1390      C1594   1.481       .  S
C1391      C1392   1.410       .  A
C1391      C1394   1.482       .  S
C1392      C1577   1.481       .  S
C1393      C1394   1.400       .  A
C1393      C1398   1.396       .  A
C1393      H1400   1.083       .  S
C1394      C1395   1.404       .  A
C1395      C1396   1.399       .  A
C1395      F1402   1.357       .  S
C1396      C1397   1.405       .  A
C1396      H1401   1.083       .  S
C1397      C1398   1.408       .  A
C1398      F1399   1.357       .  S
C1403      C1404   1.403       .  A
C1403      C1408   1.398       .  A
C1403      H1410   1.083       .  S
C1404      C1405   1.405       .  A
C1405      C1406   1.396       .  A
C1405      F1412   1.358       .  S
C1406      C1407   1.405       .  A
C1406      H1411   1.082       .  S
C1407      C1408   1.409       .  A
C1408      F1409   1.357       .  S
C1413      C1414   1.404       .  A
C1413      C1418   1.397       .  A
C1413      H1420   1.083       .  S
C1414      C1415   1.407       .  A
C1415      C1416   1.397       .  A
C1415      F1422   1.357       .  S
C1416      C1417   1.405       .  A
C1416      H1421   1.083       .  S
C1417      C1418   1.409       .  A
C1418      F1419   1.356       .  S
C1423      C1424   1.404       .  A
C1423      C1428   1.397       .  A
C1423      H1430   1.083       .  S
C1424      C1425   1.406       .  A
C1425      C1426   1.398       .  A
C1425      F1432   1.358       .  S
C1426      C1427   1.405       .  A
C1426      H1431   1.083       .  S
C1427      C1428   1.408       .  A
C1428      F1429   1.357       .  S
C1433      C1434   1.402       .  A
C1433      C1438   1.398       .  A
C1433      H1440   1.083       .  S
C1434      C1435   1.403       .  A
C1435      C1436   1.398       .  A
C1435      F1442   1.357       .  S
C1436      C1437   1.403       .  A
C1436      H1441   1.083       .  S
C1437      C1438   1.405       .  A
C1438      F1439   1.357       .  S
C1443      C1444   1.405       .  A
C1443      C1448   1.398       .  A
C1443      H1450   1.083       .  S
C1444      C1445   1.408       .  A
C1445      C1446   1.398       .  A
C1445      F1452   1.357       .  S
C1446      C1447   1.405       .  A
C1446      H1451   1.083       .  S
C1447      C1448   1.407       .  A
C1448      F1449   1.357       .  S
C1453      C1454   1.404       .  A
C1453      C1458   1.397       .  A
C1453      H1460   1.083       .  S
C1454      C1455   1.408       .  A
C1455      C1456   1.398       .  A
C1455      F1462   1.358       .  S
C1456      C1457   1.405       .  A
C1456      H1461   1.083       .  S
C1457      C1458   1.408       .  A
C1458      F1459   1.357       .  S
C1463      C1464   1.407       .  A
C1463      C1468   1.403       .  A
C1463      H1470   1.083       .  S
C1464      C1465   1.407       .  A
C1465      C1466   1.393       .  A
C1465      F1472   1.357       .  S
C1466      C1467   1.400       .  A
C1466      H1471   1.083       .  S
C1467      C1468   1.403       .  A
C1468      F1469   1.357       .  S
C1473      C1474   1.405       .  A
C1473      C1478   1.399       .  A
C1473      H1480   1.083       .  S
C1474      C1475   1.408       .  A
C1475      C1476   1.396       .  A
C1475      F1482   1.357       .  S
C1476      C1477   1.400       .  A
C1476      H1481   1.083       .  S
C1477      C1478   1.404       .  A
C1478      F1479   1.357       .  S
C1483      C1484   1.399       .  A
C1483      C1488   1.396       .  A
C1483      H1490   1.083       .  S
C1484      C1485   1.403       .  A
C1485      C1486   1.400       .  A
C1485      F1492   1.357       .  S
C1486      C1487   1.407       .  A
C1486      H1491   1.082       .  S
C1487      C1488   1.410       .  A
C1488      F1489   1.356       .  S
C1493      C1494   1.408       .  A
C1493      C1498   1.397       .  A
C1493      H1500   1.083       .  S
C1494      C1495   1.411       .  A
C1495      C1496   1.398       .  A
C1495      F1502   1.357       .  S
C1496      C1497   1.402       .  A
C1496      H1501   1.083       .  S
C1497      C1498   1.404       .  A
C1498      F1499   1.357       .  S
C1503      C1504   1.404       .  A
C1503      C1508   1.396       .  A
C1503      H1510   1.083       .  S
C1504      C1505   1.407       .  A
C1505      C1506   1.398       .  A
C1505      F1512   1.357       .  S
C1506      C1507   1.405       .  A
C1506      H1511   1.083       .  S
C1507      C1508   1.408       .  A
C1508      F1509   1.357       .  S
C1513      C1514   1.406       .  A
C1513      C1518   1.396       .  A
C1513      H1520   1.082       .  S
C1514      C1515   1.410       .  A
C1515      C1516   1.399       .  A
C1515      F1522   1.356       .  S
C1516      C1517   1.404       .  A
C1516      H1521   1.083       .  S
C1517      C1518   1.406       .  A
C1518      F1519   1.358       .  S
C1523      C1524   1.401       .  A
C1523      C1528   1.400       .  A
C1523      H1530   1.083       .  S
C1524      C1525   1.400   1_455  A
C1525      C1526   1.395   1_655  A
C1525      F1532   1.357       .  S
C1526      C1527   1.408       .  A
C1526      H1531   1.082   1_455  S
C1527      C1528   1.411       .  A
C1528      F1529   1.356       .  S
C1533      C1534   1.399       .  A
C1533      C1538   1.396       .  A
C1533      H1540   1.083       .  S
C1534      C1535   1.403       .  A
C1535      C1536   1.400       .  A
C1535      F1542   1.357       .  S
C1536      C1537   1.407       .  A
C1536      H1541   1.083       .  S
C1537      C1538   1.410       .  A
C1538      F1539   1.357       .  S
C1543      C1544   1.408       .  A
C1543      C1548   1.401       .  A
C1543      H1550   1.083       .  S
C1544      C1545   1.407       .  A
C1545      C1546   1.400       .  A
C1545      F1552   1.354       .  S
C1546      C1547   1.404       .  A
C1546      H1551   1.083       .  S
C1547      C1548   1.405       .  A
C1548      F1549   1.358       .  S
C1553      C1554   1.408       .  A
C1553      C1558   1.400       .  A
C1553      H1560   1.083       .  S
C1554      C1555   1.410       .  A
C1555      C1556   1.397       .  A
C1555      F1562   1.357       .  S
C1556      C1557   1.403       .  A
C1556      H1561   1.083       .  S
C1557      C1558   1.406       .  A
C1558      F1559   1.357       .  S
C1563      C1564   1.403       .  A
C1563      C1568   1.397       .  A
C1563      H1570   1.083       .  S
C1564      C1565   1.407       .  A
C1565      C1566   1.398       .  A
C1565      F1572   1.358       .  S
C1566      C1567   1.405       .  A
C1566      H1571   1.083       .  S
C1567      C1568   1.409       .  A
C1568      F1569   1.357       .  S
C1573      C1574   1.409       .  A
C1573      C1578   1.400       .  A
C1573      H1580   1.082       .  S
C1574      C1575   1.412       .  A
C1575      C1576   1.394       .  A
C1575      F1582   1.355       .  S
C1576      C1577   1.397       .  A
C1576      H1581   1.084       .  S
C1577      C1578   1.402       .  A
C1578      F1579   1.357       .  S
C1583      C1584   1.401       .  A
C1583      C1588   1.398       .  A
C1583      H1590   1.083       .  S
C1584      C1585   1.403       .  A
C1585      C1586   1.397       .  A
C1585      F1592   1.358       .  S
C1586      C1587   1.408       .  A
C1586      H1591   1.083       .  S
C1587      C1588   1.411       .  A
C1588      F1589   1.357       .  S
C1593      C1594   1.400       .  A
C1593      C1598   1.400       .  A
C1593      H1600   1.083       .  S
C1594      C1595   1.399       .  A
C1595      C1596   1.394       .  A
C1595      F1602   1.357       .  S
C1596      C1597   1.408       .  A
C1596      H1601   1.081       .  S
C1597      C1598   1.413       .  A
C1598      F1599   1.355       .  S
C1603      C1604   1.402       .  A
C1603      C1608   1.401       .  A
C1603      H1610   1.083       .  S
C1604      C1605   1.401       .  A
C1605      C1606   1.397       .  A
C1605      F1612   1.357       .  S
C1606      C1607   1.408       .  A
C1606      H1611   1.082       .  S
C1607      C1608   1.411       .  A
C1608      F1609   1.356       .  S
C1613      C1614   1.402       .  A
C1613      C1618   1.395       .  A
C1613      H1620   1.083       .  S
C1614      C1615   1.406       .  A
C1615      C1616   1.398       .  A
C1615      F1622   1.358       .  S
C1616      C1617   1.406       .  A
C1616      H1621   1.083       .  S
C1617      C1618   1.409       .  A
C1618      F1619   1.356       .  S
C1623      C1624   1.407       .  A
C1623      C1628   1.396       .  A
C1623      H1630   1.083       .  S
C1624      C1625   1.410       .  A
C1625      C1626   1.398       .  A
C1625      F1632   1.357       .  S
C1626      C1627   1.402       .  A
C1626      H1631   1.083       .  S
C1627      C1628   1.403       .  A
C1628      F1629   1.357       .  S
C1633      C1634   1.405       .  A
C1633      C1638   1.397       .  A
C1633      H1640   1.083       .  S
C1634      C1635   1.408       .  A
C1635      C1636   1.396       .  A
C1635      F1642   1.357       .  S
C1636      C1637   1.403       .  A
C1636      H1641   1.084       .  S
C1637      C1638   1.406       .  A
C1638      F1639   1.358       .  S
C1643      C1644   1.407       .  A
C1643      C1648   1.396       .  A
C1643      H1650   1.082       .  S
C1644      C1645   1.410       .  A
C1645      C1646   1.400       .  A
C1645      F1652   1.356       .  S
C1646      C1647   1.401       .  A
C1646      H1651   1.083       .  S
C1647      C1648   1.401       .  A
C1648      F1649   1.357   1_655  S
C1653      C1654   1.408       .  A
C1653      C1658   1.396       .  A
C1653      H1660   1.083       .  S
C1654      C1655   1.410       .  A
C1655      C1656   1.397       .  A
C1655      F1662   1.357       .  S
C1656      C1657   1.402       .  A
C1656      H1661   1.083       .  S
C1657      C1658   1.403       .  A
C1658      F1659   1.357       .  S
C1663      C1664   1.403       .  A
C1663      C1668   1.397       .  A
C1663      H1670   1.084       .  S
C1664      C1665   1.404       .  A
C1665      C1666   1.396       .  A
C1665      F1672   1.358       .  S
C1666      C1667   1.407       .  A
C1666      H1671   1.082       .  S
C1667      C1668   1.408       .  A
C1668      F1669   1.356       .  S
C1673      C1674   1.403       .  A
C1673      C1678   1.397       .  A
C1673      H1680   1.083       .  S
C1674      C1675   1.405       .  A
C1675      C1676   1.397       .  A
C1675      F1682   1.358       .  S
C1676      C1677   1.406       .  A
C1676      H1681   1.082       .  S
C1677      C1678   1.409       .  A
C1678      F1679   1.356       .  S
C1683      C1684   1.404       .  A
C1683      C1688   1.397       .  A
C1683      H1690   1.083       .  S
C1684      C1685   1.407       .  A
C1685      C1686   1.398       .  A
C1685      F1692   1.358       .  S
C1686      C1687   1.405       .  A
C1686      H1691   1.083       .  S
C1687      C1688   1.408       .  A
C1688      F1689   1.357       .  S
C1693      C1694   1.405       .  A
C1693      C1698   1.398       .  A
C1693      H1700   1.083       .  S
C1694      C1695   1.407       .  A
C1695      C1696   1.397       .  A
C1695      F1702   1.357       .  S
C1696      C1697   1.405       .  A
C1696      H1701   1.082       .  S
C1697      C1698   1.409       .  A
C1698      F1699   1.357       .  S
C1703      C1704   1.405       .  A
C1703      C1708   1.397       .  A
C1703      H1710   1.083       .  S
C1704      C1705   1.408       .  A
C1705      C1706   1.397       .  A
C1705      F1712   1.357       .  S
C1706      C1707   1.404       .  A
C1706      H1711   1.083       .  S
C1707      C1708   1.407       .  A
C1708      F1709   1.357       .  S
C1713      C1714   1.402       .  A
C1713      C1718   1.402       .  A
C1713      H1720   1.083       .  S
C1714      C1715   1.400       .  A
C1715      C1716   1.395       .  A
C1715      F1722   1.357       .  S
C1716      C1717   1.407       .  A
C1716      H1721   1.082       .  S
C1717      C1718   1.409       .  A
C1718      F1719   1.357       .  S
C1723      C1724   1.399       .  A
C1723      C1728   1.396       .  A
C1723      H1730   1.084       .  S
C1724      C1725   1.403       .  A
C1725      C1726   1.400       .  A
C1725      F1732   1.357       .  S
C1726      C1727   1.407       .  A
C1726      H1731   1.083       .  S
C1727      C1728   1.411       .  A
C1728      F1729   1.356       .  S
C1733      C1734   1.403       .  A
C1733      C1738   1.397       .  A
C1733      H1740   1.083       .  S
C1734      C1735   1.406       .  A
C1735      C1736   1.398       .  A
C1735      F1742   1.357       .  S
C1736      C1737   1.406       .  A
C1736      H1741   1.082       .  S
C1737      C1738   1.409       .  A
C1738      F1739   1.356       .  S
C1743      C1744   1.405       .  A
C1743      C1748   1.397       .  A
C1743      H1750   1.082       .  S
C1744      C1745   1.409       .  A
C1745      C1746   1.398       .  A
C1745      F1752   1.356       .  S
C1746      C1747   1.403       .  A
C1746      H1751   1.083       .  S
C1747      C1748   1.406       .  A
C1748      F1749   1.358       .  S
C1753      C1754   1.399       .  A
C1753      C1758   1.395       .  A
C1753      H1760   1.083       .  S
C1754      C1755   1.402       .  A
C1755      C1756   1.400       .  A
C1755      F1762   1.357       .  S
C1756      C1757   1.408       .  A
C1756      H1761   1.082       .  S
C1757      C1758   1.410       .  A
C1758      F1759   1.356       .  S
C1763      C1764   1.402       .  A
C1763      C1768   1.398       .  A
C1763      H1770   1.083       .  S
C1764      C1765   1.404       .  A
C1765      C1766   1.397       .  A
C1765      F1772   1.357       .  S
C1766      C1767   1.408       .  A
C1766      H1771   1.083       .  S
C1767      C1768   1.411       .  A
C1768      F1769   1.357       .  S
C1773      C1774   1.401       .  A
C1773      C1778   1.399       .  A
C1773      H1780   1.083       .  S
C1774      C1775   1.400       .  A
C1775      C1776   1.395       .  A
C1775      F1782   1.358       .  S
C1776      C1777   1.407       .  A
C1776      H1781   1.082       .  S
C1777      C1778   1.410       .  A
C1778      F1779   1.356       .  S
C1783      C1784   1.398       .  A
C1783      C1788   1.395       .  A
C1783      H1790   1.084       .  S
C1784      C1785   1.402       .  A
C1785      C1786   1.400       .  A
C1785      F1792   1.357       .  S
C1786      C1787   1.407       .  A
C1786      H1791   1.082       .  S
C1787      C1788   1.411       .  A
C1788      F1789   1.356       .  S
C1793      C1794   1.407       .  A
C1793      C1798   1.396       .  A
C1793      H1800   1.082       .  S
C1794      C1795   1.410       .  A
C1795      C1796   1.400       .  A
C1795      F1802   1.356       .  S
C1796      C1797   1.401       .  A
C1796      H1801   1.083       .  S
C1797      C1798   1.401       .  A
C1798      F1799   1.357       .  S
C1803      C1804   1.407       .  A
C1803      C1808   1.395       .  A
C1803      H1810   1.082       .  S
C1804      C1805   1.410       .  A
C1805      C1806   1.400       .  A
C1805      F1812   1.356       .  S
C1806      C1807   1.401       .  A
C1806      H1811   1.083       .  S
C1807      C1808   1.400       .  A
C1808      F1809   1.357       .  S
C1813      C1814   1.408       .  A
C1813      C1818   1.396       .  A
C1813      H1820   1.083       .  S
C1814      C1815   1.411       .  A
C1815      C1816   1.399       .  A
C1815      F1822   1.357       .  S
C1816      C1817   1.402       .  A
C1816      H1821   1.083       .  S
C1817      C1818   1.404       .  A
C1818      F1819   1.357       .  S
C1823      C1824   1.407       .  A
C1823      C1828   1.395       .  A
C1823      H1830   1.082       .  S
C1824      C1825   1.411       .  A
C1825      C1826   1.399       .  A
C1825      F1832   1.356       .  S
C1826      C1827   1.400       .  A
C1826      H1831   1.083       .  S
C1827      C1828   1.400       .  A
C1828      F1829   1.358       .  S
C1833      C1834   1.406       .  A
C1833      C1838   1.398       .  A
C1833      H1840   1.082       .  S
C1834      C1835   1.409       .  A
C1835      C1836   1.397       .  A
C1835      F1842   1.356       .  S
C1836      C1837   1.404       .  A
C1836      H1841   1.083       .  S
C1837      C1838   1.407       .  A
C1838      F1839   1.357       .  S
C1843      C1844   1.398       .  A
C1843      C1848   1.395       .  A
C1843      H1850   1.083   1_655  S
C1844      C1845   1.401       .  A
C1845      C1846   1.399       .  A
C1845      F1852   1.357       .  S
C1846      C1847   1.409       .  A
C1846      H1851   1.082       .  S
C1847      C1848   1.413       .  A
C1848      F1849   1.355   1_655  S
C1853      C1854   1.400       .  A
C1853      C1858   1.400       .  A
C1853      H1860   1.083       .  S
C1854      C1855   1.400       .  A
C1855      C1856   1.394       .  A
C1855      F1862   1.357       .  S
C1856      C1857   1.408       .  A
C1856      H1861   1.081       .  S
C1857      C1858   1.412       .  A
C1858      F1859   1.356       .  S
C1863      C1864   1.409       .  A
C1863      C1868   1.398       .  A
C1863      H1870   1.082       .  S
C1864      C1865   1.412       .  A
C1865      C1866   1.396       .  A
C1865      F1872   1.357       .  S
C1866      C1867   1.401       .  A
C1866      H1871   1.083       .  S
C1867      C1868   1.403       .  A
C1868      F1869   1.357       .  S
C1873      C1874   1.406       .  A
C1873      C1878   1.399       .  A
C1873      H1880   1.083       .  S
C1874      C1875   1.409       .  A
C1875      C1876   1.395       .  A
C1875      F1882   1.357       .  S
C1876      C1877   1.399       .  A
C1876      H1881   1.083       .  S
C1877      C1878   1.403       .  A
C1878      F1879   1.357       .  S
C1883      C1884   1.402       .  A
C1883      C1888   1.400       .  A
C1883      H1890   1.083       .  S
C1884      C1885   1.401       .  A
C1885      C1886   1.396       .  A
C1885      F1892   1.357       .  S
C1886      C1887   1.406       .  A
C1886      H1891   1.083       .  S
C1887      C1888   1.408       .  A
C1888      F1889   1.357       .  S
C1893      C1894   1.408       .  A
C1893      C1898   1.397       .  A
C1893      H1900   1.083       .  S
C1894      C1895   1.410       .  A
C1895      C1896   1.397       .  A
C1895      F1902   1.357       .  S
C1896      C1897   1.402       .  A
C1896      H1901   1.083       .  S
C1897      C1898   1.403       .  A
C1898      F1899   1.357       .  S
C1903      C1904   1.404       .  A
C1903      C1908   1.398       .  A
C1903      H1910   1.083       .  S
C1904      C1905   1.407       .  A
C1905      C1906   1.397       .  A
C1905      F1912   1.358       .  S
C1906      C1907   1.405       .  A
C1906      H1911   1.082       .  S
C1907      C1908   1.409       .  A
C1908      F1909   1.356       .  S
C1913      C1914   1.405       .  A
C1913      C1918   1.397       .  A
C1913      H1920   1.083       .  S
C1914      C1915   1.406       .  A
C1915      C1916   1.398       .  A
C1915      F1922   1.357       .  S
C1916      C1917   1.406       .  A
C1916      H1921   1.083       .  S
C1917      C1918   1.408       .  A
C1918      F1919   1.357       .  S
C1923      C1924   1.398       .  A
C1923      C1928   1.394       .  A
C1923      H1930   1.083   1_554  S
C1924      C1925   1.402       .  A
C1925      C1926   1.400       .  A
C1925      F1932   1.357       .  S
C1926      C1927   1.408       .  A
C1926      H1931   1.082       .  S
C1927      C1928   1.411       .  A
C1928      F1929   1.356   1_554  S
C1933      C1934   1.401       .  A
C1933      C1938   1.399       .  A
C1933      H1940   1.083   1_455  S
C1934      C1935   1.407       .  A
C1935      C1936   1.396       .  A
C1935      F1942   1.357       .  S
C1936      C1937   1.402       .  A
C1936      H1941   1.083       .  S
C1937      C1938   1.409       .  A
C1938      F1939   1.357   1_455  S
C1943      C1944   1.409       .  A
C1943      C1948   1.396   1_655  A
C1943      H1950   1.082   1_655  S
C1944      C1945   1.411       .  A
C1945      C1946   1.400       .  A
C1945      F1952   1.356       .  S
C1946      C1947   1.401       .  A
C1946      H1951   1.083       .  S
C1947      C1948   1.400   1_655  A
C1948      F1949   1.358       .  S
C1953      C1954   1.405       .  A
C1953      C1958   1.401       .  A
C1953      H1960   1.083       .  S
C1954      C1955   1.407       .  A
C1955      C1956   1.393       .  A
C1955      F1962   1.357       .  S
C1956      C1957   1.401       .  A
C1956      H1961   1.083       .  S
C1957      C1958   1.405       .  A
C1958      F1959   1.357       .  S
C1963      C1964   1.403       .  A
C1963      C1968   1.398       .  A
C1963      H1970   1.084       .  S
C1964      C1965   1.402       .  A
C1965      C1966   1.396       .  A
C1965      F1972   1.354       .  S
C1966      C1967   1.409       .  A
C1966      H1971   1.080       .  S
C1967      C1968   1.413       .  A
C1968      F1969   1.355       .  S
C1973      C1974   1.408       .  A
C1973      C1978   1.393       .  A
C1973      H1980   1.079       .  S
C1974      C1975   1.414       .  A
C1975      C1976   1.406       .  A
C1975      F1982   1.355       .  S
C1976      C1977   1.408       .  A
C1976      H1981   1.083       .  S
C1977      C1978   1.402       .  A
C1978      F1979   1.353       .  S
C1983      C1984   1.402       .  A
C1983      C1988   1.400       .  A
C1983      H1990   1.083       .  S
C1984      C1985   1.402       .  A
C1985      C1986   1.394       .  A
C1985      F1992   1.358       .  S
C1986      C1987   1.403       .  A
C1986      H1991   1.083       .  S
C1987      C1988   1.407       .  A
C1988      F1989   1.357       .  S
C1993      C1994   1.401       .  A
C1993      C1998   1.396       .  A
C1993      H2000   1.083       .  S
C1994      C1995   1.404       .  A
C1995      C1996   1.397       .  A
C1995      F2002   1.357       .  S
C1996      C1997   1.408       .  A
C1996      H2001   1.083       .  S
C1997      C1998   1.410       .  A
C1998      F1999   1.357       .  S
C2003      C2004   1.405       .  A
C2003      C2008   1.399       .  A
C2003      H2010   1.083       .  S
C2004      C2005   1.408       .  A
C2005      C2006   1.395       .  A
C2005      F2012   1.357       .  S
C2006      C2007   1.399       .  A
C2006      H2011   1.083       .  S
C2007      C2008   1.403       .  A
C2008      F2009   1.357       .  S
C2013      C2014   1.406       .  A
C2013      C2018   1.397       .  A
C2013      H2020   1.083       .  S
C2014      C2015   1.409       .  A
C2015      C2016   1.395       .  A
C2015      F2022   1.356       .  S
C2016      C2017   1.403       .  A
C2016      H2021   1.084       .  S
C2017      C2018   1.406       .  A
C2018      F2019   1.358       .  S
C2023      C2024   1.407       .  A
C2023      C2028   1.401       .  A
C2023      H2030   1.083       .  S
C2024      C2025   1.411       .  A
C2025      C2026   1.396       .  A
C2025      F2032   1.356       .  S
C2026      C2027   1.399       .  A
C2026      H2031   1.083       .  S
C2027      C2028   1.403       .  A
C2028      F2029   1.357       .  S
C2033      C2034   1.408       .  A
C2033      C2038   1.400       .  A
C2033      H2040   1.082       .  S
C2034      C2035   1.411       .  A
C2035      C2036   1.395       .  A
C2035      F2042   1.356       .  S
C2036      C2037   1.398       .  A
C2036      H2041   1.083       .  S
C2037      C2038   1.402       .  A
C2038      F2039   1.357       .  S
C2043      C2044   1.406       .  A
C2043      C2048   1.397       .  A
C2043      H2050   1.082       .  S
C2044      C2045   1.410       .  A
C2045      C2046   1.399       .  A
C2045      F2052   1.356       .  S
C2046      C2047   1.404       .  A
C2046      H2051   1.083       .  S
C2047      C2048   1.406       .  A
C2048      F2049   1.358       .  S
C2053      C2054   1.403       .  A
C2053      C2058   1.397       .  A
C2053      H2060   1.084       .  S
C2054      C2055   1.405       .  A
C2055      C2056   1.398       .  A
C2055      F2062   1.357       .  S
C2056      C2057   1.407       .  A
C2056      H2061   1.082       .  S
C2057      C2058   1.410       .  A
C2058      F2059   1.356       .  S
C2063      C2064   1.405       .  A
C2063      C2068   1.395       .  A
C2063      H2070   1.083       .  S
C2064      C2065   1.409       .  A
C2065      C2066   1.400       .  A
C2065      F2072   1.357       .  S
C2066      C2067   1.402       .  A
C2066      H2071   1.083       .  S
C2067      C2068   1.401       .  A
C2068      F2069   1.357       .  S
C2073      C2074   1.409       .  A
C2073      C2078   1.398       .  A
C2073      H2080   1.082       .  S
C2074      C2075   1.412       .  A
C2075      C2076   1.398       .  A
C2075      F2082   1.357       .  S
C2076      C2077   1.401       .  A
C2076      H2081   1.083       .  S
C2077      C2078   1.403       .  A
C2078      F2079   1.357       .  S
C2083      C2084   1.409       .  A
C2083      C2088   1.394   1_545  A
C2083      H2090   1.080   1_545  S
C2084      C2085   1.413       .  A
C2085      C2086   1.400       .  A
C2085      F2092   1.355       .  S
C2086      C2087   1.401       .  A
C2086      H2091   1.083       .  S
C2087      C2088   1.400   1_545  A
C2088      F2089   1.357       .  S
C2093      C2094   1.406       .  A
C2093      C2098   1.400       .  A
C2093      H2100   1.083       .  S
C2094      C2095   1.409       .  A
C2095      C2096   1.396       .  A
C2095      F2102   1.357       .  S
C2096      C2097   1.399       .  A
C2096      H2101   1.083   1_565  S
C2097      C2098   1.403       .  A
C2098      F2099   1.357       .  S
C2103      C2104   1.403       .  A
C2103      C2108   1.400       .  A
C2103      H2110   1.083       .  S
C2104      C2105   1.402       .  A
C2105      C2106   1.394       .  A
C2105      F2112   1.357   1_554  S
C2106      C2107   1.404       .  A
C2106      H2111   1.083       .  S
C2107      C2108   1.407       .  A
C2108      F2109   1.357       .  S
C2113      C2114   1.400       .  A
C2113      C2118   1.400       .  A
C2113      H2120   1.083       .  S
C2114      C2115   1.400       .  A
C2115      C2116   1.392       .  A
C2115      F2122   1.357   1_556  S
C2116      C2117   1.407       .  A
C2116      H2121   1.081   1_556  S
C2117      C2118   1.411       .  A
C2118      F2119   1.356       .  S
C2123      C2124   1.406       .  A
C2123      C2128   1.396       .  A
C2123      H2130   1.083       .  S
C2124      C2125   1.409       .  A
C2125      C2126   1.400       .  A
C2125      F2132   1.357       .  S
C2126      C2127   1.401       .  A
C2126      H2131   1.083       .  S
C2127      C2128   1.401       .  A
C2128      F2129   1.357       .  S
C2133      C2134   1.404       .  A
C2133      C2138   1.399       .  A
C2133      H2140   1.083       .  S
C2134      C2135   1.407       .  A
C2135      C2136   1.397       .  A
C2135      F2142   1.357       .  S
C2136      C2137   1.401       .  A
C2136      H2141   1.083   1_565  S
C2137      C2138   1.405       .  A
C2138      F2139   1.356       .  S
C2143      C2144   1.403       .  A
C2143      C2148   1.395       .  A
C2143      H2150   1.083       .  S
C2144      C2145   1.407       .  A
C2145      C2146   1.399       .  A
C2145      F2152   1.358       .  S
C2146      C2147   1.405       .  A
C2146      H2151   1.083       .  S
C2147      C2148   1.407       .  A
C2148      F2149   1.357       .  S
C2153      C2154   1.403       .  A
C2153      C2158   1.398       .  A
C2153      H2160   1.083       .  S
C2154      C2155   1.404       .  A
C2155      C2156   1.397       .  A
C2155      F2162   1.358       .  S
C2156      C2157   1.404       .  A
C2156      H2161   1.083       .  S
C2157      C2158   1.407       .  A
C2158      F2159   1.357       .  S
C2163      C2164   1.400       .  A
C2163      C2168   1.399       .  A
C2163      H2170   1.083       .  S
C2164      C2165   1.400       .  A
C2165      C2166   1.395       .  A
C2165      F2172   1.358       .  S
C2166      C2167   1.409       .  A
C2166      H2171   1.081       .  S
C2167      C2168   1.413       .  A
C2168      F2169   1.355       .  S
C2173      C2174   1.407       .  A
C2173      C2178   1.399       .  A
C2173      H2180   1.083       .  S
C2174      C2175   1.411       .  A
C2175      C2176   1.394       .  A
C2175      F2182   1.356   1_545  S
C2176      C2177   1.398       .  A
C2176      H2181   1.084   1_545  S
C2177      C2178   1.402       .  A
C2178      F2179   1.357       .  S
C2183      C2184   1.406       .  A
C2183      C2188   1.398       .  A
C2183      H2190   1.082       .  S
C2184      C2185   1.410       .  A
C2185      C2186   1.396       .  A
C2185      F2192   1.356       .  S
C2186      C2187   1.404       .  A
C2186      H2191   1.083       .  S
C2187      C2188   1.407       .  A
C2188      F2189   1.357       .  S
C2193      C2194   1.400       .  A
C2193      C2198   1.401       .  A
C2193      H2200   1.083       .  S
C2194      C2195   1.401       .  A
C2195      C2196   1.393       .  A
C2195      F2202   1.358       .  S
C2196      C2197   1.406       .  A
C2196      H2201   1.081       .  S
C2197      C2198   1.412       .  A
C2198      F2199   1.356       .  S
C2203      C2204   1.398       .  A
C2203      C2208   1.395       .  A
C2203      H2210   1.083       .  S
C2204      C2205   1.403       .  A
C2205      C2206   1.399       .  A
C2205      F2212   1.357       .  S
C2206      C2207   1.407       .  A
C2206      H2211   1.082       .  S
C2207      C2208   1.411       .  A
C2208      F2209   1.356       .  S
C2213      C2214   1.403       .  A
C2213      C2218   1.397       .  A
C2213      H2220   1.083       .  S
C2214      C2215   1.405       .  A
C2215      C2216   1.397       .  A
C2215      F2222   1.358       .  S
C2216      C2217   1.405       .  A
C2216      H2221   1.083       .  S
C2217      C2218   1.408       .  A
C2218      F2219   1.357       .  S
C2223      C2224   1.404       .  A
C2223      C2228   1.397       .  A
C2223      H2230   1.083       .  S
C2224      C2225   1.406       .  A
C2225      C2226   1.396       .  A
C2225      F2232   1.358       .  S
C2226      C2227   1.405       .  A
C2226      H2231   1.082       .  S
C2227      C2228   1.409       .  A
C2228      F2229   1.357       .  S
C2233      C2234   1.406       .  A
C2233      C2238   1.395       .  A
C2233      H2240   1.082       .  S
C2234      C2235   1.409       .  A
C2235      C2236   1.400       .  A
C2235      F2242   1.357       .  S
C2236      C2237   1.401       .  A
C2236      H2241   1.083       .  S
C2237      C2238   1.401       .  A
C2238      F2239   1.357   1_565  S
C2243      C2244   1.405       .  A
C2243      C2248   1.397       .  A
C2243      H2250   1.082       .  S
C2244      C2245   1.409       .  A
C2245      C2246   1.398       .  A
C2245      F2252   1.356       .  S
C2246      C2247   1.403       .  A
C2246      H2251   1.083       .  S
C2247      C2248   1.406       .  A
C2248      F2249   1.358       .  S
C2253      C2254   1.400       .  A
C2253      C2258   1.400       .  A
C2253      H2260   1.083       .  S
C2254      C2255   1.400       .  A
C2255      C2256   1.394       .  A
C2255      F2262   1.358   1_565  S
C2256      C2257   1.407       .  A
C2256      H2261   1.082       .  S
C2257      C2258   1.411       .  A
C2258      F2259   1.356       .  S
C2263      C2264   1.401       .  A
C2263      C2268   1.400       .  A
C2263      H2270   1.083       .  S
C2264      C2265   1.401   1_655  A
C2265      C2266   1.395   1_455  A
C2265      F2272   1.357       .  S
C2266      C2267   1.408       .  A
C2266      H2271   1.082   1_655  S
C2267      C2268   1.411       .  A
C2268      F2269   1.356       .  S
C2273      C2274   1.399       .  A
C2273      C2278   1.396       .  A
C2273      H2280   1.083   1_556  S
C2274      C2275   1.403       .  A
C2275      C2276   1.399       .  A
C2275      F2282   1.357       .  S
C2276      C2277   1.406       .  A
C2276      H2281   1.083       .  S
C2277      C2278   1.408       .  A
C2278      F2279   1.357       .  S
C2283      C2284   1.399       .  A
C2283      C2288   1.395       .  A
C2283      H2290   1.083   1_545  S
C2284      C2285   1.402       .  A
C2285      C2286   1.399       .  A
C2285      F2292   1.357       .  S
C2286      C2287   1.407       .  A
C2286      H2291   1.083       .  S
C2287      C2288   1.410       .  A
C2288      F2289   1.357   1_545  S
C2293      C2294   1.401       .  A
C2293      C2298   1.400       .  A
C2293      H2300   1.083       .  S
C2294      C2295   1.400       .  A
C2295      C2296   1.395       .  A
C2295      F2302   1.357   1_455  S
C2296      C2297   1.407       .  A
C2296      H2301   1.082   1_455  S
C2297      C2298   1.411       .  A
C2298      F2299   1.356       .  S
C2303      C2304   1.401       .  A
C2303      C2308   1.399       .  A
C2303      H2310   1.083       .  S
C2304      C2305   1.401       .  A
C2305      C2306   1.396       .  A
C2305      F2312   1.357   1_454  S
C2306      C2307   1.406       .  A
C2306      H2311   1.083       .  S
C2307      C2308   1.409       .  A
C2308      F2309   1.357       .  S
C2313      C2314   1.409       .  A
C2313      C2318   1.400       .  A
C2313      H2320   1.082       .  S
C2314      C2315   1.412       .  A
C2315      C2316   1.395       .  A
C2315      F2322   1.355       .  S
C2316      C2317   1.399       .  A
C2316      H2321   1.083       .  S
C2317      C2318   1.402       .  A
C2318      F2319   1.357       .  S
C2323      C2324   1.398       .  A
C2323      C2328   1.395       .  A
C2323      H2330   1.084       .  S
C2324      C2325   1.402       .  A
C2325      C2326   1.400       .  A
C2325      F2332   1.357       .  S
C2326      C2327   1.407       .  A
C2326      H2331   1.083       .  S
C2327      C2328   1.410       .  A
C2328      F2329   1.357       .  S
C2333      C2334   1.401       .  A
C2333      C2338   1.399       .  A
C2333      H2340   1.083       .  S
C2334      C2335   1.401       .  A
C2335      C2336   1.396       .  A
C2335      F2342   1.357       .  S
C2336      C2337   1.406       .  A
C2336      H2341   1.083       .  S
C2337      C2338   1.409       .  A
C2338      F2339   1.357       .  S
C2343      C2344   1.402       .  A
C2343      C2348   1.399       .  A
C2343      H2350   1.083       .  S
C2344      C2345   1.401       .  A
C2345      C2346   1.395       .  A
C2345      F2352   1.357       .  S
C2346      C2347   1.406       .  A
C2346      H2351   1.083       .  S
C2347      C2348   1.408       .  A
C2348      F2349   1.357       .  S
C2353      C2354   1.399       .  A
C2353      C2358   1.395       .  A
C2353      H2360   1.084       .  S
C2354      C2355   1.403       .  A
C2355      C2356   1.400       .  A
C2355      F2362   1.357       .  S
C2356      C2357   1.406       .  A
C2356      H2361   1.083       .  S
C2357      C2358   1.409       .  A
C2358      F2359   1.357       .  S
C2363      C2364   1.400       .  A
C2363      C2368   1.400       .  A
C2363      H2370   1.083       .  S
C2364      C2365   1.399       .  A
C2365      C2366   1.394       .  A
C2365      F2372   1.357       .  S
C2366      C2367   1.408       .  A
C2366      H2371   1.081       .  S
C2367      C2368   1.412       .  A
C2368      F2369   1.356       .  S
C2373      C2374   1.409       .  A
C2373      C2378   1.401       .  A
C2373      H2380   1.082       .  S
C2374      C2375   1.413       .  A
C2375      C2376   1.396   1_556  A
C2375      F2382   1.355   1_556  S
C2376      C2377   1.399   1_554  A
C2376      H2381   1.083       .  S
C2377      C2378   1.403       .  A
C2378      F2379   1.357       .  S
C2383      C2384   1.405       .  A
C2383      C2388   1.401       .  A
C2383      H2390   1.083       .  S
C2384      C2385   1.408       .  A
C2385      C2386   1.396       .  A
C2385      F2392   1.357       .  S
C2386      C2387   1.400       .  A
C2386      H2391   1.084   1_554  S
C2387      C2388   1.404       .  A
C2388      F2389   1.357       .  S
C2393      C2394   1.407       .  A
C2393      C2398   1.398       .  A
C2393      H2400   1.082       .  S
C2394      C2395   1.410       .  A
C2395      C2396   1.402       .  A
C2395      F2402   1.356       .  S
C2396      C2397   1.403       .  A
C2396      H2401   1.083       .  S
C2397      C2398   1.402       .  A
C2398      F2399   1.357   1_554  S
C2403      C2404   1.408       .  A
C2403      C2408   1.400       .  A
C2403      H2410   1.082       .  S
C2404      C2405   1.412       .  A
C2405      C2406   1.395       .  A
C2405      F2412   1.356       .  S
C2406      C2407   1.398       .  A
C2406      H2411   1.084       .  S
C2407      C2408   1.402       .  A
C2408      F2409   1.357       .  S
C2413      C2414   1.408       .  A
C2413      C2418   1.395       .  A
C2413      H2420   1.082       .  S
C2414      C2415   1.411       .  A
C2415      C2416   1.400       .  A
C2415      F2422   1.356       .  S
C2416      C2417   1.401       .  A
C2416      H2421   1.083       .  S
C2417      C2418   1.400       .  A
C2418      F2419   1.357       .  S
C2423      C2424   1.406       .  A
C2423      C2428   1.400       .  A
C2423      H2430   1.083       .  S
C2424      C2425   1.408       .  A
C2425      C2426   1.396       .  A
C2425      F2432   1.357       .  S
C2426      C2427   1.400       .  A
C2426      H2431   1.083       .  S
C2427      C2428   1.404       .  A
C2428      F2429   1.357       .  S
C2433      C2434   1.404       .  A
C2433      C2438   1.397       .  A
C2433      H2440   1.083       .  S
C2434      C2435   1.407       .  A
C2435      C2436   1.397       .  A
C2435      F2442   1.358       .  S
C2436      C2437   1.405       .  A
C2436      H2441   1.083       .  S
C2437      C2438   1.408       .  A
C2438      F2439   1.357       .  S
C2443      C2444   1.404       .  A
C2443      C2448   1.398       .  A
C2443      H2450   1.083       .  S
C2444      C2445   1.407       .  A
C2445      C2446   1.397       .  A
C2445      F2452   1.358       .  S
C2446      C2447   1.400       .  A
C2446      H2451   1.083       .  S
C2447      C2448   1.403       .  A
C2448      F2449   1.357       .  S
C2453      C2454   1.404       .  A
C2453      C2458   1.397       .  A
C2453      H2460   1.083       .  S
C2454      C2455   1.406       .  A
C2455      C2456   1.399       .  A
C2455      F2462   1.358       .  S
C2456      C2457   1.406       .  A
C2456      H2461   1.083       .  S
C2457      C2458   1.408       .  A
C2458      F2459   1.357       .  S
C2463      C2464   1.401       .  A
C2463      C2468   1.400       .  A
C2463      H2470   1.083       .  S
C2464      C2465   1.401       .  A
C2465      C2466   1.396       .  A
C2465      F2472   1.357   1_565  S
C2466      C2467   1.407       .  A
C2466      H2471   1.082       .  S
C2467      C2468   1.410       .  A
C2468      F2469   1.356       .  S
C2473      C2474   1.402       .  A
C2473      C2478   1.401       .  A
C2473      H2480   1.083       .  S
C2474      C2475   1.401       .  A
C2475      C2476   1.395       .  A
C2475      F2482   1.357   1_545  S
C2476      C2477   1.406       .  A
C2476      H2481   1.083       .  S
C2477      C2478   1.409       .  A
C2478      F2479   1.357       .  S
C2483      C2484   1.404       .  A
C2483      C2488   1.399       .  A
C2483      H2490   1.083       .  S
C2484      C2485   1.405       .  A
C2485      C2486   1.398       .  A
C2485      F2492   1.357   1_565  S
C2486      C2487   1.404       .  A
C2486      H2491   1.083       .  S
C2487      C2488   1.406       .  A
C2488      F2489   1.357       .  S
C2493      C2494   1.398       .  A
C2493      C2498   1.394       .  A
C2493      H2500   1.083       .  S
C2494      C2495   1.402       .  A
C2495      C2496   1.401       .  A
C2495      F2502   1.357       .  S
C2496      C2497   1.409       .  A
C2496      H2501   1.082       .  S
C2497      C2498   1.412       .  A
C2498      F2499   1.356       .  S
C2503      C2504   1.402       .  A
C2503      C2508   1.398       .  A
C2503      H2510   1.080       .  S
C2504      C2505   1.406   1_545  A
C2505      C2506   1.400   1_565  A
C2505      F2512   1.357       .  S
C2506      C2507   1.411       .  A
C2506      H2511   1.081   1_545  S
C2507      C2508   1.412       .  A
C2508      F2509   1.354       .  S
C2513      C2514   1.405       .  A
C2513      C2518   1.395       .  A
C2513      H2520   1.083       .  S
C2514      C2515   1.409       .  A
C2515      C2516   1.399       .  A
C2515      F2522   1.357       .  S
C2516      C2517   1.402       .  A
C2516      H2521   1.083       .  S
C2517      C2518   1.401       .  A
C2518      F2519   1.357   1_455  S
C2523      C2524   1.408       .  A
C2523      C2528   1.400       .  A
C2523      H2530   1.082       .  S
C2524      C2525   1.412       .  A
C2525      C2526   1.395   1_655  A
C2525      F2532   1.356   1_655  S
C2526      C2527   1.398   1_455  A
C2526      H2531   1.083       .  S
C2527      C2528   1.403       .  A
C2528      F2529   1.357       .  S
C2533      C2534   1.405       .  A
C2533      C2538   1.400       .  A
C2533      H2540   1.083       .  S
C2534      C2535   1.407       .  A
C2535      C2536   1.395       .  A
C2535      F2542   1.357       .  S
C2536      C2537   1.400       .  A
C2536      H2541   1.083       .  S
C2537      C2538   1.404       .  A
C2538      F2539   1.357       .  S
C2543      C2544   1.405       .  A
C2543      C2548   1.399       .  A
C2543      H2550   1.083       .  S
C2544      C2545   1.408       .  A
C2545      C2546   1.396       .  A
C2545      F2552   1.357       .  S
C2546      C2547   1.401       .  A
C2546      H2551   1.083   1_455  S
C2547      C2548   1.404       .  A
C2548      F2549   1.357       .  S
C2553      C2554   1.397       .  A
C2553      C2558   1.394       .  A
C2553      H2560   1.084       .  S
C2554      C2555   1.401       .  A
C2555      C2556   1.400       .  A
C2555      F2562   1.357       .  S
C2556      C2557   1.410       .  A
C2556      H2561   1.081       .  S
C2557      C2558   1.413       .  A
C2558      F2559   1.355       .  S
C2563      C2564   1.410       .  A
C2563      C2568   1.395       .  A
C2563      H2570   1.080       .  S
C2564      C2565   1.415       .  A
C2565      C2566   1.400       .  A
C2565      F2572   1.354       .  S
C2566      C2567   1.400       .  A
C2566      H2571   1.083       .  S
C2567      C2568   1.400       .  A
C2568      F2569   1.357       .  S
C2573      C2574   1.407       .  A
C2573      C2578   1.399       .  A
C2573      H2580   1.082       .  S
C2574      C2575   1.411       .  A
C2575      C2576   1.395       .  A
C2575      F2582   1.356       .  S
C2576      C2577   1.398       .  A
C2576      H2581   1.084       .  S
C2577      C2578   1.402       .  A
C2578      F2579   1.357       .  S
C2583      C2584   1.408       .  A
C2583      C2588   1.397       .  A
C2583      H2590   1.083       .  S
C2584      C2585   1.411       .  A
C2585      C2586   1.398       .  A
C2585      F2592   1.357       .  S
C2586      C2587   1.402       .  A
C2586      H2591   1.083       .  S
C2587      C2588   1.404       .  A
C2588      F2589   1.358       .  S
C2593      C2594   1.406       .  A
C2593      C2598   1.397       .  A
C2593      H2600   1.083       .  S
C2594      C2595   1.409       .  A
C2595      C2596   1.399       .  A
C2595      F2602   1.357       .  S
C2596      C2597   1.402       .  A
C2596      H2601   1.083       .  S
C2597      C2598   1.402       .  A
C2598      F2599   1.357       .  S
C2603      C2604   1.409       .  A
C2603      C2608   1.402       .  A
C2603      H2610   1.082       .  S
C2604      C2605   1.409       .  A
C2605      C2606   1.395       .  A
C2605      F2612   1.357       .  S
C2606      C2607   1.401       .  A
C2606      H2611   1.083       .  S
C2607      C2608   1.402       .  A
C2608      F2609   1.357       .  S
C2613      C2614   1.402       .  A
C2613      C2618   1.398       .  A
C2613      H2620   1.083       .  S
C2614      C2615   1.404       .  A
C2615      C2616   1.398       .  A
C2615      F2622   1.357       .  S
C2616      C2617   1.407       .  A
C2616      H2621   1.083       .  S
C2617      C2618   1.410       .  A
C2618      F2619   1.358       .  S
C2623      C2624   1.398       .  A
C2623      C2628   1.394       .  A
C2623      H2630   1.083       .  S
C2624      C2625   1.402       .  A
C2625      C2626   1.399       .  A
C2625      F2632   1.357       .  S
C2626      C2627   1.406       .  A
C2626      H2631   1.083       .  S
C2627      C2628   1.410       .  A
C2628      F2629   1.357       .  S
C2633      C2634   1.409       .  A
C2633      C2638   1.399       .  A
C2633      H2640   1.082       .  S
C2634      C2635   1.413       .  A
C2635      C2636   1.394       .  A
C2635      F2642   1.355       .  S
C2636      C2637   1.398       .  A
C2636      H2641   1.084       .  S
C2637      C2638   1.402       .  A
C2638      F2639   1.357       .  S
C2643      C2644   1.406       .  A
C2643      C2648   1.397       .  A
C2643      H2650   1.082       .  S
C2644      C2645   1.410       .  A
C2645      C2646   1.397       .  A
C2645      F2652   1.356       .  S
C2646      C2647   1.403       .  A
C2646      H2651   1.083       .  S
C2647      C2648   1.406       .  A
C2648      F2649   1.358       .  S
C2653      C2654   1.398       .  A
C2653      C2658   1.395       .  A
C2653      H2660   1.083       .  S
C2654      C2655   1.402       .  A
C2655      C2656   1.400       .  A
C2655      F2662   1.357       .  S
C2656      C2657   1.409       .  A
C2656      H2661   1.082       .  S
C2657      C2658   1.412       .  A
C2658      F2659   1.356       .  S
C2663      C2664   1.402       .  A
C2663      C2668   1.401       .  A
C2663      H2670   1.083       .  S
C2664      C2665   1.400       .  A
C2665      C2666   1.395       .  A
C2665      F2672   1.357       .  S
C2666      C2667   1.409       .  A
C2666      H2671   1.081       .  S
C2667      C2668   1.412       .  A
C2668      F2669   1.356       .  S
C2673      C2674   1.398       .  A
C2673      C2678   1.395       .  A
C2673      H2680   1.084       .  S
C2674      C2675   1.402       .  A
C2675      C2676   1.401       .  A
C2675      F2682   1.357       .  S
C2676      C2677   1.409       .  A
C2676      H2681   1.082       .  S
C2677      C2678   1.413       .  A
C2678      F2679   1.355       .  S
C2683      C2684   1.400       .  A
C2683      C2688   1.396       .  A
C2683      H2690   1.083       .  S
C2684      C2685   1.403       .  A
C2685      C2686   1.399       .  A
C2685      F2692   1.357       .  S
C2686      C2687   1.406       .  A
C2686      H2691   1.083       .  S
C2687      C2688   1.409       .  A
C2688      F2689   1.357       .  S
C2693      C2694   1.405       .  A
C2693      C2698   1.400       .  A
C2693      H2700   1.083       .  S
C2694      C2695   1.408       .  A
C2695      C2696   1.395       .  A
C2695      F2702   1.357       .  S
C2696      C2697   1.400       .  A
C2696      H2701   1.083       .  S
C2697      C2698   1.404       .  A
C2698      F2699   1.357       .  S
C2703      C2704   1.399       .  A
C2703      C2708   1.396       .  A
C2703      H2710   1.083       .  S
C2704      C2705   1.403       .  A
C2705      C2706   1.400       .  A
C2705      F2712   1.357       .  S
C2706      C2707   1.406       .  A
C2706      H2711   1.083       .  S
C2707      C2708   1.409       .  A
C2708      F2709   1.357       .  S
C2713      C2714   1.398       .  A
C2713      C2718   1.395       .  A
C2713      H2720   1.084       .  S
C2714      C2715   1.402       .  A
C2715      C2716   1.399       .  A
C2715      F2722   1.357       .  S
C2716      C2717   1.408       .  A
C2716      H2721   1.082       .  S
C2717      C2718   1.412       .  A
C2718      F2719   1.356       .  S
C2723      C2724   1.399       .  A
C2723      C2728   1.396       .  A
C2723      H2730   1.083       .  S
C2724      C2725   1.403       .  A
C2725      C2726   1.400       .  A
C2725      F2732   1.357       .  S
C2726      C2727   1.406       .  A
C2726      H2731   1.083       .  S
C2727      C2728   1.409       .  A
C2728      F2729   1.357       .  S
C2733      C2734   1.399       .  A
C2733      C2738   1.396       .  A
C2733      H2740   1.083       .  S
C2734      C2735   1.402       .  A
C2735      C2736   1.400       .  A
C2735      F2742   1.357       .  S
C2736      C2737   1.408       .  A
C2736      H2741   1.082       .  S
C2737      C2738   1.411       .  A
C2738      F2739   1.356       .  S
C2743      C2744   1.402       .  A
C2743      C2748   1.400       .  A
C2743      H2750   1.083       .  S
C2744      C2745   1.401       .  A
C2745      C2746   1.395       .  A
C2745      F2752   1.357       .  S
C2746      C2747   1.405       .  A
C2746      H2751   1.083       .  S
C2747      C2748   1.408       .  A
C2748      F2749   1.357       .  S
C2753      C2754   1.402       .  A
C2753      C2758   1.400       .  A
C2753      H2760   1.083       .  S
C2754      C2755   1.402       .  A
C2755      C2756   1.395       .  A
C2755      F2762   1.357       .  S
C2756      C2757   1.405       .  A
C2756      H2761   1.083       .  S
C2757      C2758   1.408       .  A
C2758      F2759   1.357       .  S
C2763      C2764   1.398       .  A
C2763      C2768   1.396       .  A
C2763      H2770   1.084       .  S
C2764      C2765   1.402       .  A
C2765      C2766   1.400       .  A
C2765      F2772   1.357       .  S
C2766      C2767   1.409       .  A
C2766      H2771   1.082       .  S
C2767      C2768   1.413       .  A
C2768      F2769   1.355       .  S
C2773      C2774   1.400       .  A
C2773      C2778   1.396       .  A
C2773      H2780   1.083       .  S
C2774      C2775   1.404       .  A
C2775      C2776   1.400       .  A
C2775      F2782   1.357       .  S
C2776      C2777   1.405       .  A
C2776      H2781   1.083       .  S
C2777      C2778   1.408       .  A
C2778      F2779   1.357       .  S
C2783      C2784   1.409       .  A
C2783      C2788   1.395       .  A
C2783      H2790   1.081       .  S
C2784      C2785   1.413       .  A
C2785      C2786   1.400       .  A
C2785      F2792   1.355       .  S
C2786      C2787   1.400       .  A
C2786      H2791   1.083       .  S
C2787      C2788   1.400       .  A
C2788      F2789   1.358       .  S
C2793      C2794   1.397       .  A
C2793      C2798   1.393       .  A
C2793      H2800   1.083       .  S
C2794      C2795   1.401       .  A
C2795      C2796   1.399       .  A
C2795      F2802   1.357       .  S
C2796      C2797   1.411       .  A
C2796      H2801   1.080       .  S
C2797      C2798   1.415       .  A
C2798      F2799   1.353       .  S
C2803      C2804   1.405       .  A
C2803      C2808   1.401       .  A
C2803      H2810   1.083       .  S
C2804      C2805   1.408       .  A
C2805      C2806   1.396       .  A
C2805      F2812   1.357       .  S
C2806      C2807   1.401       .  A
C2806      H2811   1.083       .  S
C2807      C2808   1.405       .  A
C2808      F2809   1.357       .  S
C2813      C2814   1.402       .  A
C2813      C2818   1.399       .  A
C2813      H2820   1.083       .  S
C2814      C2815   1.401       .  A
C2815      C2816   1.395       .  A
C2815      F2822   1.357       .  S
C2816      C2817   1.405       .  A
C2816      H2821   1.083       .  S
C2817      C2818   1.408       .  A
C2818      F2819   1.357       .  S
C2823      C2824   1.408       .  A
C2823      C2828   1.395       .  A
C2823      H2830   1.081       .  S
C2824      C2825   1.412       .  A
C2825      C2826   1.400       .  A
C2825      F2832   1.356       .  S
C2826      C2827   1.401       .  A
C2826      H2831   1.083       .  S
C2827      C2828   1.400       .  A
C2828      F2829   1.357       .  S
