geometry optimzed in LAMMPS
_audit_creation_date              2020-11-30 
_audit_creation_method            'lammps2cif' 
_symmetry_space_group_name_H-M    'P1' 
_symmetry_Int_Tables_number       1 
_symmetry_cell_setting            triclinic 
loop_ 
_symmetry_equiv_pos_as_xyz 
  x,y,z 
_cell_length_a                    50.38917054323903 
_cell_length_b                    50.95495955286227 
_cell_length_c                    50.57854802416376 
_cell_angle_alpha                 90.35230390660304 
_cell_angle_beta                  89.81008238504084 
_cell_angle_gamma                 90.2521925232344 
loop_ 
_atom_site_label 
_atom_site_type_symbol 
_atom_site_fract_x 
_atom_site_fract_y 
_atom_site_fract_z 
_atom_site_charge 
C1          C  0.26066318  0.26974633  0.23271977     0.03370
C2          C  0.23962748  0.27513020  0.25040400    -0.12780
C3          C  0.23641809  0.26111261  0.27405346     0.00870
C4          C  0.25246343  0.23906656  0.27831326    -0.11310
C5          C  0.27346086  0.23267766  0.26105589     0.03360
C6          C  0.27757383  0.24861469  0.23861528    -0.10730
H7          H  0.22653447  0.29142052  0.24662592     0.08960
H8          H  0.24941740  0.22763011  0.29587300     0.06490
H9          H  0.29453267  0.24504621  0.22606057     0.06330
C10         C  0.80003002  0.24587776  0.23458700     0.03370
C11         C  0.78596766  0.24766081  0.21066160    -0.12780
C12         C  0.76550564  0.22981979  0.20454687     0.00870
C13         C  0.76337667  0.20676598  0.21956761    -0.11310
C14         C  0.77750960  0.20403203  0.24337420     0.03360
C15         C  0.79520076  0.22410729  0.25103106    -0.10730
H16         H  0.78937957  0.26416155  0.19785071     0.08960
H17         H  0.74910023  0.19187376  0.21398576     0.06490
H18         H  0.80405416  0.22359386  0.27049734     0.06330
C19         C  0.20260903  0.76955293  0.23705612     0.03370
C20         C  0.21973953  0.76116008  0.21691164    -0.12780
C21         C  0.24500554  0.77237444  0.21413090     0.00870
C22         C  0.25232220  0.79347551  0.23070987    -0.11310
C23         C  0.23430503  0.80409974  0.24932418     0.03360
C24         C  0.20929872  0.79171533  0.25220467    -0.10730
H25         H  0.21399053  0.74469105  0.20456885     0.08960
H26         H  0.27241263  0.80097542  0.22963372     0.06490
H27         H  0.19545686  0.79821087  0.26725954     0.06330
C28         C  0.20636101  0.24564142  0.76930416     0.03370
C29         C  0.21952350  0.25383186  0.79237731    -0.12780
C30         C  0.24189080  0.24037495  0.80151866     0.00870
C31         C  0.24889770  0.21647393  0.78938378    -0.11310
C32         C  0.23542968  0.20713355  0.76674082     0.03360
C33         C  0.21423828  0.22217725  0.75685932    -0.10730
H34         H  0.21327061  0.27162278  0.80233665     0.08960
H35         H  0.26584738  0.20588461  0.79686371     0.06490
H36         H  0.20424787  0.21602620  0.73904002     0.06330
C37         C  0.73702046  0.77425833  0.26689573     0.03370
C38         C  0.73604861  0.76444420  0.24078946    -0.12780
C39         C  0.74907345  0.74090023  0.23371136     0.00870
C40         C  0.76537202  0.72888188  0.25268061    -0.11310
C41         C  0.76907467  0.74018391  0.27774512     0.03360
C42         C  0.75470378  0.76270688  0.28482841    -0.10730
H43         H  0.72365668  0.77415506  0.22648420     0.08960
H44         H  0.77453592  0.71016343  0.24842743     0.06490
H45         H  0.75624292  0.77034715  0.30481146     0.06330
N46         N  0.62990270  0.13912083  0.68508253    -0.27050
N47         N  0.62062828  0.16334493  0.68416137    -0.34910
C48         C  0.64002327  0.18044528  0.68991023     0.01290
C49         C  0.66284738  0.16677096  0.69521881     0.07320
C50         C  0.65588710  0.14044031  0.69180240    -0.05780
H51         H  0.63706627  0.20132289  0.69255641     0.07980
H52         H  0.66836908  0.12355612  0.69495463     0.09180
Cu53       Cu  0.58135328  0.17363308  0.68523122     0.44170
Cu54       Cu  0.60447109  0.10630929  0.68062927     0.41990
Cu55       Cu  0.54679160  0.12372026  0.71819861     0.43880
N56         N  0.54929639  0.18127564  0.70914302    -0.34440
N57         N  0.53732094  0.16245876  0.72250792    -0.28690
C58         C  0.51979881  0.17306902  0.73934441    -0.04790
C59         C  0.52128129  0.19991142  0.73675220     0.07430
C60         C  0.54012958  0.20462523  0.71748862     0.01220
H61         H  0.50802246  0.16215300  0.75346474     0.08870
H62         H  0.54776767  0.22346709  0.71122812     0.07950
N63         N  0.54983558  0.08936113  0.69755399    -0.35880
N64         N  0.56965524  0.08308544  0.68161428    -0.28060
C65         C  0.56199861  0.06203736  0.66701380    -0.03300
C66         C  0.53596763  0.05540894  0.67399436     0.05310
C67         C  0.52950292  0.07279594  0.69393823     0.03400
H68         H  0.57409181  0.05274953  0.65196139     0.08510
H69         H  0.51090950  0.07406078  0.70455712     0.07340
N70         N  0.36011111  0.28732817  0.89554385    -0.27050
N71         N  0.36743050  0.29220668  0.87095645    -0.34910
C72         C  0.34714734  0.28747081  0.85465943     0.01290
C73         C  0.32555208  0.27905839  0.86920903     0.07320
C74         C  0.33441196  0.27939601  0.89534783    -0.05780
H75         H  0.34858724  0.28837277  0.83332977     0.07980
H76         H  0.32343241  0.27385868  0.91281148     0.09180
Cu77       Cu  0.40562761  0.29725666  0.85778847     0.44170
Cu78       Cu  0.38806566  0.28856419  0.92623581     0.41990
Cu79       Cu  0.44342720  0.25502099  0.89628791     0.43880
N80         N  0.43757315  0.27745953  0.84256917    -0.34440
N81         N  0.45017212  0.25974652  0.85660650    -0.28690
C82         C  0.46747689  0.24709223  0.84102208    -0.04790
C83         C  0.46526096  0.25704009  0.81577707     0.07430
C84         C  0.44629848  0.27651768  0.81747255     0.01220
H85         H  0.48025707  0.23136478  0.84743252     0.08870
H86         H  0.43894025  0.28877446  0.80181932     0.07950
N87         N  0.44416506  0.27062941  0.93367628    -0.35880
N88         N  0.42531470  0.28517648  0.94438466    -0.28060
C89         C  0.43547325  0.29750221  0.96586227    -0.03300
C90         C  0.46196823  0.29003345  0.96870191     0.05310
C91         C  0.46636489  0.27291467  0.94788630     0.03400
H92         H  0.42466312  0.31175527  0.97741514     0.08510
H93         H  0.48496478  0.26375794  0.94250246     0.07340
N94         N  0.38515297  0.14081829  0.32302253    -0.27050
N95         N  0.39394883  0.16494393  0.32761699    -0.34910
C96         C  0.37574269  0.18229658  0.31984871     0.01290
C97         C  0.35496190  0.16896054  0.30816137     0.07320
C98         C  0.36115075  0.14253992  0.31118034    -0.05780
H99         H  0.37921836  0.20323141  0.31922825     0.07980
H100        H  0.35034333  0.12600863  0.30300408     0.09180
Cu101      Cu  0.43334511  0.17591543  0.32925196     0.44170
Cu102      Cu  0.40915941  0.10743837  0.32864801     0.41990
Cu103      Cu  0.47256050  0.12607140  0.30327419     0.43880
N104        N  0.46751826  0.18385728  0.30794816    -0.34440
N105        N  0.48190350  0.16465662  0.29791705    -0.28690
C106        C  0.50023590  0.17454839  0.28151694    -0.04790
C107        C  0.49717644  0.20138621  0.28097821     0.07430
C108        C  0.47595051  0.20670375  0.29759754     0.01220
H109        H  0.51314493  0.16288194  0.26903431     0.08870
H110        H  0.46598728  0.22531590  0.30011173     0.07950
N111        N  0.46500169  0.09006458  0.31891081    -0.35880
N112        N  0.44262261  0.08277056  0.33033792    -0.28060
C113        C  0.44681526  0.05942587  0.34226369    -0.03300
C114        C  0.47317626  0.05186606  0.33773166     0.05310
C115        C  0.48361058  0.07195974  0.32268557     0.03400
H116        H  0.43198923  0.04946422  0.35393336     0.08510
H117        H  0.50375479  0.07377850  0.31544690     0.07340
N118        N  0.64994746  0.28700049  0.11379743    -0.27050
N119        N  0.64368254  0.29467566  0.13801257    -0.34910
C120        C  0.66422368  0.29025091  0.15403538     0.01290
C121        C  0.68425032  0.27784851  0.13992539     0.07320
C122        C  0.67446545  0.27630392  0.11422096    -0.05780
H123        H  0.66297292  0.29203772  0.17533567     0.07980
H124        H  0.68286346  0.26539149  0.09787937     0.09180
Cu125      Cu  0.60522901  0.29580552  0.15251572     0.44170
Cu126      Cu  0.62173244  0.28663447  0.08356762     0.41990
Cu127      Cu  0.56748556  0.25259184  0.11203480     0.43880
N128        N  0.57330241  0.27416471  0.16668925    -0.34440
N129        N  0.56109034  0.25646768  0.15190384    -0.28690
C130        C  0.54351428  0.24322447  0.16668416    -0.04790
C131        C  0.54432169  0.25324626  0.19213346     0.07430
C132        C  0.56380103  0.27258629  0.19151022     0.01220
H133        H  0.53186585  0.22691014  0.15943528     0.08870
H134        H  0.57113569  0.28401997  0.20805134     0.07950
N135        N  0.56597286  0.26878074  0.07512790    -0.35880
N136        N  0.58491265  0.28352415  0.06488197    -0.28060
C137        C  0.57493797  0.29628894  0.04382054    -0.03300
C138        C  0.54842167  0.28885470  0.04070727     0.05310
C139        C  0.54377456  0.27136940  0.06099974     0.03400
H140        H  0.58585089  0.31085339  0.03281983     0.08510
H141        H  0.52504853  0.26220545  0.06608590     0.07340
N142        N  0.38648657  0.87283811  0.69301183    -0.27050
N143        N  0.39530480  0.84908337  0.68701617    -0.34910
C144        C  0.37689217  0.83114413  0.69318844     0.01290
C145        C  0.35609529  0.84337131  0.70594486     0.07320
C146        C  0.36234123  0.87007487  0.70468054    -0.05780
H147        H  0.38032205  0.81026362  0.69206180     0.07980
H148        H  0.35131994  0.88597692  0.71368460     0.09180
Cu149      Cu  0.43457927  0.83812090  0.68753794     0.44170
Cu150      Cu  0.41050909  0.90689226  0.68759710     0.41990
Cu151      Cu  0.47764079  0.88790909  0.70250242     0.43880
N152        N  0.46951062  0.83114161  0.70755788    -0.34440
N153        N  0.48658608  0.85031683  0.71149357    -0.28690
C154        C  0.50595502  0.84234624  0.72749487    -0.04790
C155        C  0.50002166  0.81715831  0.73566302     0.07430
C156        C  0.47695257  0.81045537  0.72208622     0.01220
H157        H  0.52197056  0.85489063  0.73373160     0.08870
H158        H  0.46527188  0.79274500  0.72435364     0.07950
N159        N  0.46759198  0.92428210  0.69035112    -0.35880
N160        N  0.44395594  0.93200654  0.68242679    -0.28060
C161        C  0.44704187  0.95598612  0.67123190    -0.03300
C162        C  0.47398099  0.96289544  0.67209566     0.05310
C163        C  0.48580172  0.94261632  0.68530663     0.03400
H164        H  0.43114653  0.96723726  0.66260476     0.08510
H165        H  0.50651030  0.94071162  0.69031839     0.07340
N166        N  0.65082898  0.72623755  0.89498867    -0.27050
N167        N  0.64456200  0.71772520  0.87106151    -0.34910
C168        C  0.66459190  0.72270372  0.85440546     0.01290
C169        C  0.68445560  0.73612152  0.86769599     0.07320
C170        C  0.67501855  0.73786818  0.89366912    -0.05780
H171        H  0.66324312  0.71973662  0.83325437     0.07980
H172        H  0.68355252  0.74902996  0.90973988     0.09180
Cu173      Cu  0.60644265  0.71315277  0.85712094     0.44170
Cu174      Cu  0.62323690  0.72526761  0.92644617     0.41990
Cu175      Cu  0.56531375  0.75128555  0.89788003     0.43880
N176        N  0.57301907  0.73161069  0.84293319    -0.34440
N177        N  0.55806016  0.74613190  0.85859612    -0.28690
C178        C  0.54027965  0.75908113  0.84419434    -0.04790
C179        C  0.54453515  0.75299861  0.81790449     0.07430
C180        C  0.56566872  0.73565447  0.81774025     0.01220
H181        H  0.52690039  0.77375925  0.85207198     0.08870
H182        H  0.57678302  0.72889234  0.80072835     0.07950
N183        N  0.56680356  0.73981416  0.93619904    -0.35880
N184        N  0.58680060  0.72717832  0.94690673    -0.28060
C185        C  0.57795692  0.71585307  0.96945422    -0.03300
C186        C  0.55108061  0.72204897  0.97281387     0.05310
C187        C  0.54521590  0.73747901  0.95131870     0.03400
H188        H  0.58984724  0.70298871  0.98136557     0.08510
H189        H  0.52598619  0.74513522  0.94597171     0.07340
N190        N  0.36515302  0.72513880  0.12258830    -0.27050
N191        N  0.37265279  0.72090025  0.14720243    -0.34910
C192        C  0.35236511  0.72551234  0.16367701     0.01290
C193        C  0.33078539  0.73340950  0.14915497     0.07320
C194        C  0.33944417  0.73273136  0.12294653    -0.05780
H195        H  0.35386180  0.72523507  0.18501013     0.07980
H196        H  0.32832437  0.73806248  0.10558044     0.09180
Cu197      Cu  0.41116187  0.71764214  0.15969664     0.44170
Cu198      Cu  0.39276439  0.72391819  0.09138926     0.41990
Cu199      Cu  0.44852014  0.75900536  0.11878526     0.43880
N200        N  0.44465652  0.73661323  0.17280201    -0.34440
N201        N  0.45744610  0.75367532  0.15790516    -0.28690
C202        C  0.47576383  0.76614456  0.17252037    -0.04790
C203        C  0.47445071  0.75632259  0.19788479     0.07430
C204        C  0.45419804  0.73795451  0.19750946     0.01220
H205        H  0.48774136  0.78239222  0.16560967     0.08870
H206        H  0.44576278  0.72780447  0.21429534     0.07950
N207        N  0.44818522  0.74330029  0.08146505    -0.35880
N208        N  0.42936893  0.72794025  0.07179026    -0.28060
C209        C  0.43926830  0.71520856  0.05041368    -0.03300
C210        C  0.46554382  0.72327504  0.04656369     0.05310
C211        C  0.47007754  0.74118295  0.06665241     0.03400
H212        H  0.42855764  0.70016907  0.03975830     0.08510
H213        H  0.48868323  0.75079189  0.07132551     0.07340
N214        N  0.63091409  0.87467460  0.32803847    -0.27050
N215        N  0.62094873  0.85114926  0.33294036    -0.34910
C216        C  0.63911412  0.83288999  0.32729194     0.01290
C217        C  0.66159387  0.84486296  0.31714982     0.07320
C218        C  0.65570514  0.87160967  0.31805985    -0.05780
H219        H  0.63478538  0.81206829  0.32690383     0.07980
H220        H  0.66715062  0.88737345  0.30944871     0.09180
Cu221      Cu  0.58107593  0.84186467  0.33246948     0.44170
Cu222      Cu  0.60735852  0.90868417  0.33089607     0.41990
Cu223      Cu  0.54751173  0.89145333  0.29837090     0.43880
N224        N  0.54803391  0.83421414  0.30951899    -0.34440
N225        N  0.53631113  0.85301849  0.29615805    -0.28690
C226        C  0.51820935  0.84255180  0.27989894    -0.04790
C227        C  0.51850590  0.81572941  0.28304265     0.07430
C228        C  0.53800972  0.81095646  0.30160673     0.01220
H229        H  0.50731961  0.85349532  0.26525788     0.08870
H230        H  0.54573689  0.79204983  0.30730039     0.07950
N231        N  0.55325757  0.92710905  0.31579588    -0.35880
N232        N  0.57410789  0.93358489  0.33013111    -0.28060
C233        C  0.56839705  0.95600530  0.34341312    -0.03300
C234        C  0.54269346  0.96389543  0.33669158     0.05310
C235        C  0.53415377  0.94491268  0.31903841     0.03400
H236        H  0.58159387  0.96492766  0.35760659     0.08510
H237        H  0.51481905  0.94344071  0.30989821     0.07340
C238        C  0.81013081  0.77360443  0.78025478     0.03370
C239        C  0.79077973  0.76642773  0.79898974    -0.12780
C240        C  0.76886845  0.78276560  0.80419670     0.00870
C241        C  0.76664550  0.80656309  0.79037053    -0.11310
C242        C  0.78475284  0.81303741  0.77024566     0.03360
C243        C  0.80727586  0.79729584  0.76659570    -0.10730
H244        H  0.79150190  0.74712871  0.80782100     0.08960
H245        H  0.74933659  0.81858649  0.79334695     0.06490
H246        H  0.82074900  0.80164238  0.75042035     0.06330
C247        C  0.74258736  0.26781849  0.77824409     0.03370
C248        C  0.73006941  0.24650661  0.76568098    -0.12780
C249        C  0.74075093  0.23530033  0.74250438     0.00870
C250        C  0.76511178  0.24490995  0.73286077    -0.11310
C251        C  0.77800961  0.26643476  0.74503086     0.03360
C252        C  0.76728129  0.27660815  0.76864273    -0.10730
H253        H  0.71149644  0.23912736  0.77349041     0.08960
H254        H  0.77381247  0.23601613  0.71548393     0.06490
H255        H  0.77753853  0.29205954  0.77913965     0.06330
N256        N  0.13695991  0.69271095  0.62859351    -0.27050
N257        N  0.16173899  0.68920177  0.62051346    -0.34910
C258        C  0.17856660  0.69695660  0.63941486     0.01290
C259        C  0.16430332  0.70736079  0.66018880     0.07320
C260        C  0.13778945  0.70384587  0.65303810    -0.05780
H261        H  0.19978158  0.69860525  0.63652665     0.07980
H262        H  0.12062171  0.71112643  0.66362292     0.09180
Cu263      Cu  0.17457112  0.68865129  0.58190954     0.44170
Cu264      Cu  0.10403764  0.68556540  0.60324089     0.41990
Cu265      Cu  0.12628644  0.69915943  0.53645219     0.43880
N266        N  0.18285364  0.70779112  0.54704374    -0.34440
N267        N  0.16413573  0.71078499  0.52927954    -0.28690
C268        C  0.17254687  0.72705869  0.51035061    -0.04790
C269        C  0.19752362  0.73593192  0.51720585     0.07430
C270        C  0.20372886  0.72289600  0.54037349     0.01220
H271        H  0.16053988  0.73305514  0.49388453     0.08870
H272        H  0.22106048  0.72594292  0.55259734     0.07950
N273        N  0.08934482  0.68602852  0.54547862    -0.35880
N274        N  0.08030366  0.67934860  0.56904627    -0.28060
C275        C  0.05564402  0.66907761  0.56566249    -0.03300
C276        C  0.04958839  0.66919811  0.53863728     0.05310
C277        C  0.07122633  0.68094319  0.52698784     0.03400
H278        H  0.04311728  0.66201973  0.58152885     0.08510
H279        H  0.07387565  0.68561799  0.50635241     0.07340
N280        N  0.29261715  0.89509532  0.36425176    -0.27050
N281        N  0.30004186  0.87092783  0.37008759    -0.34910
C282        C  0.29477600  0.85489939  0.34968442     0.01290
C283        C  0.28213648  0.86893030  0.33030625     0.07320
C284        C  0.28142991  0.89458493  0.33993569    -0.05780
H285        H  0.29650479  0.83377419  0.35051828     0.07980
H286        H  0.27104597  0.91091084  0.33121504     0.09180
Cu287      Cu  0.30246300  0.85613501  0.40779699     0.44170
Cu288      Cu  0.29363881  0.92579117  0.39253239     0.41990
Cu289      Cu  0.26504372  0.89725714  0.44939958     0.43880
N290        N  0.28244808  0.84218574  0.44056209    -0.34440
N291        N  0.26829526  0.85797661  0.45570476    -0.28690
C292        C  0.25492485  0.84390598  0.47356609    -0.04790
C293        C  0.26031215  0.81769806  0.46918301     0.07430
C294        C  0.27767635  0.81725055  0.44783443     0.01220
H295        H  0.24083802  0.85206503  0.48753206     0.08870
H296        H  0.28426642  0.80030889  0.43674232     0.07950
N297        N  0.27852778  0.93484377  0.44902373    -0.35880
N298        N  0.29176669  0.94557927  0.42927071    -0.28060
C299        C  0.30381286  0.96758356  0.43855778    -0.03300
C300        C  0.29806044  0.97000621  0.46549976     0.05310
C301        C  0.28134928  0.94930827  0.47094049     0.03400
H302        H  0.31673505  0.98010607  0.42702271     0.08510
H303        H  0.27306252  0.94408612  0.48993978     0.07340
N304        N  0.86801598  0.68648499  0.38893539    -0.27050
N305        N  0.84484631  0.68839121  0.40094385    -0.34910
C306        C  0.82606304  0.69411877  0.38333659     0.01290
C307        C  0.83729887  0.69597450  0.35838949     0.07320
C308        C  0.86423917  0.69063427  0.36278995    -0.05780
H309        H  0.80585357  0.69879747  0.38881115     0.07980
H310        H  0.88020973  0.69059976  0.34860492     0.09180
Cu311      Cu  0.83946463  0.69138002  0.44098183     0.44170
Cu312      Cu  0.90286021  0.68285766  0.41158960     0.41990
Cu313      Cu  0.89174792  0.72711019  0.46822698     0.43880
N314        N  0.83411213  0.71670563  0.47208403    -0.34440
N315        N  0.85326876  0.73214022  0.48086820    -0.28690
C316        C  0.84294498  0.74983371  0.49778366    -0.04790
C317        C  0.81589514  0.74539013  0.49910363     0.07430
C318        C  0.81100333  0.72411387  0.48286077     0.01220
H319        H  0.85404723  0.76536841  0.50742635     0.08870
H320        H  0.79193139  0.71554443  0.47808362     0.07950
N321        N  0.92418780  0.70317262  0.46382018    -0.35880
N322        N  0.92793310  0.68551788  0.44488052    -0.28060
C323        C  0.94798950  0.66964644  0.45236703    -0.03300
C324        C  0.95659460  0.67752898  0.47736861     0.05310
C325        C  0.94148062  0.69923123  0.48341061     0.03400
H326        H  0.95502960  0.65299063  0.44102553     0.08510
H327        H  0.94204185  0.71070528  0.50144814     0.07340
N328        N  0.72632151  0.88893437  0.64609132    -0.27050
N329        N  0.71209090  0.86702156  0.64692333    -0.34910
C330        C  0.71788212  0.85382729  0.66893445     0.01290
C331        C  0.73790359  0.86688128  0.68213436     0.07320
C332        C  0.74235589  0.88953440  0.66752018    -0.05780
H333        H  0.71083955  0.83417674  0.67292210     0.07980
H334        H  0.75778903  0.90399463  0.67084003     0.09180
Cu335      Cu  0.69766598  0.84715360  0.61438400     0.44170
Cu336      Cu  0.72542490  0.91477481  0.61355731     0.41990
Cu337      Cu  0.69967499  0.88074901  0.55645505     0.43880
N338        N  0.70895941  0.82875868  0.57974066    -0.34440
N339        N  0.71055363  0.84240023  0.55784562    -0.28690
C340        C  0.72635835  0.82998980  0.54061696    -0.04790
C341        C  0.73547314  0.80706418  0.55206053     0.07430
C342        C  0.72340039  0.80676639  0.57689426     0.01220
H343        H  0.73300375  0.83854814  0.52220902     0.08870
H344        H  0.72621652  0.79305723  0.59267519     0.07950
N345        N  0.70518394  0.92028652  0.55771297    -0.35880
N346        N  0.71654827  0.93328954  0.57739170    -0.28060
C347        C  0.72166205  0.95797046  0.56904226    -0.03300
C348        C  0.71307505  0.95998335  0.54302341     0.05310
C349        C  0.70261533  0.93587924  0.53671704     0.03400
H350        H  0.73182892  0.97287961  0.58053071     0.08510
H351        H  0.69539880  0.92951195  0.51759311     0.07340
N352        N  0.14184057  0.32513643  0.38516022    -0.27050
N353        N  0.16619516  0.33173108  0.39236024    -0.34910
C354        C  0.18324261  0.32541660  0.37312711     0.01290
C355        C  0.16984228  0.31259431  0.35302179     0.07320
C356        C  0.14330876  0.31307586  0.36123104    -0.05780
H357        H  0.20454235  0.32663553  0.37547481     0.07980
H358        H  0.12673643  0.30315683  0.35205842     0.09180
Cu359      Cu  0.17983312  0.33297557  0.43061844     0.44170
Cu360      Cu  0.10897754  0.33017230  0.41087726     0.41990
Cu361      Cu  0.13331838  0.32108020  0.47741989     0.43880
N362        N  0.18940863  0.31325677  0.46477100    -0.34440
N363        N  0.17132404  0.31010932  0.48330351    -0.28690
C364        C  0.17957996  0.29248366  0.50087382    -0.04790
C365        C  0.20367593  0.28295492  0.49227500     0.07430
C366        C  0.20972075  0.29694239  0.46959212     0.01220
H367        H  0.16761129  0.28531349  0.51705121     0.08870
H368        H  0.22607945  0.29341806  0.45615065     0.07950
N369        N  0.09538663  0.33041777  0.46874072    -0.35880
N370        N  0.08558474  0.33564923  0.44528446    -0.28060
C371        C  0.06029892  0.34385087  0.44882756    -0.03300
C372        C  0.05394521  0.34325873  0.47601131     0.05310
C373        C  0.07708977  0.33410930  0.48735312     0.03400
H374        H  0.04817388  0.34990843  0.43255068     0.08510
H375        H  0.08097089  0.33005307  0.50788968     0.07340
N376        N  0.28730754  0.11861602  0.64924810    -0.27050
N377        N  0.29060447  0.14374064  0.64357258    -0.34910
C378        C  0.28624309  0.15838285  0.66517759     0.01290
C379        C  0.27980871  0.14211000  0.68581565     0.07320
C380        C  0.28025604  0.11688042  0.67506560    -0.05780
H381        H  0.28553657  0.17960795  0.66529323     0.07980
H382        H  0.27472947  0.09887539  0.68491763     0.09180
Cu383      Cu  0.29222213  0.15944510  0.60635989     0.44170
Cu384      Cu  0.28984554  0.08931920  0.61960042     0.41990
Cu385      Cu  0.25740750  0.11765857  0.56380250     0.43880
N386        N  0.27567504  0.17264108  0.57190958    -0.34440
N387        N  0.26208127  0.15676694  0.55633806    -0.28690
C388        C  0.25134067  0.17059594  0.53673941    -0.04790
C389        C  0.25802174  0.19670661  0.54041499     0.07430
C390        C  0.27322893  0.19734696  0.56317989     0.01220
H391        H  0.23824675  0.16245988  0.52185536     0.08870
H392        H  0.27983013  0.21443448  0.57407871     0.07950
N393        N  0.27315051  0.08095085  0.56324974    -0.35880
N394        N  0.28808420  0.07099697  0.58207350    -0.28060
C395        C  0.30173863  0.05059359  0.57155145    -0.03300
C396        C  0.29521928  0.04834037  0.54480322     0.05310
C397        C  0.27639033  0.06737504  0.54080110     0.03400
H398        H  0.31619661  0.03910949  0.58213709     0.08510
H399        H  0.26689127  0.07229025  0.52237748     0.07340
N400        N  0.73522001  0.11630392  0.36572369    -0.27050
N401        N  0.72914915  0.14102938  0.37108081    -0.34910
C402        C  0.73312361  0.15577703  0.34970672     0.01290
C403        C  0.74190553  0.14002998  0.32939017     0.07320
C404        C  0.74338517  0.11497142  0.34016193    -0.05780
H405        H  0.73101595  0.17689376  0.34942522     0.07980
H406        H  0.75012357  0.09731371  0.33030301     0.09180
Cu407      Cu  0.72111315  0.15751840  0.40721157     0.44170
Cu408      Cu  0.73317342  0.08696353  0.39506411     0.41990
Cu409      Cu  0.74346582  0.12097784  0.45793494     0.43880
N410        N  0.73128167  0.17490577  0.44233757    -0.34440
N411        N  0.74056425  0.16052934  0.46169500    -0.28690
C412        C  0.75088598  0.17612688  0.48039081    -0.04790
C413        C  0.74815230  0.20175552  0.47220947     0.07430
C414        C  0.73585406  0.20031871  0.44783050     0.01220
H415        H  0.76195824  0.16926210  0.49727285     0.08870
H416        H  0.73345240  0.21605401  0.43380551     0.07950
N417        N  0.73563625  0.08205572  0.45446777    -0.35880
N418        N  0.73073428  0.06876408  0.43246240    -0.28060
C419        C  0.72369394  0.04404779  0.43935824    -0.03300
C420        C  0.72381656  0.04255346  0.46685778     0.05310
C421        C  0.73195495  0.06676538  0.47549515     0.03400
H422        H  0.71855242  0.02854310  0.42556917     0.08510
H423        H  0.73475348  0.07306215  0.49576473     0.07340
N424        N  0.87439401  0.31912642  0.63389944    -0.27050
N425        N  0.84933785  0.31748326  0.62623104    -0.34910
C426        C  0.83401160  0.30998575  0.64641638     0.01290
C427        C  0.84970807  0.30635052  0.66815846     0.07320
C428        C  0.87539256  0.31237565  0.65979049    -0.05780
H429        H  0.81286503  0.30646995  0.64506874     0.07980
H430        H  0.89330646  0.31170092  0.67148024     0.09180
Cu431      Cu  0.83489660  0.32002054  0.58864559     0.44170
Cu432      Cu  0.90506464  0.32958673  0.60716267     0.41990
Cu433      Cu  0.87906388  0.32388117  0.53894655     0.43880
N434        N  0.82453000  0.30873946  0.55123613    -0.34440
N435        N  0.84175393  0.31057907  0.53175525    -0.28690
C436        C  0.83288466  0.29704748  0.51076147    -0.04790
C437        C  0.80912750  0.28544712  0.51785487     0.07430
C438        C  0.80416329  0.29358209  0.54350126     0.01220
H439        H  0.84395012  0.29431974  0.49264474     0.08870
H440        H  0.78852213  0.28664803  0.55642711     0.07950
N441        N  0.91686268  0.33397611  0.54854479    -0.35880
N442        N  0.92705430  0.33742295  0.57229364    -0.28060
C443        C  0.95266933  0.34484954  0.56916489    -0.03300
C444        C  0.95891418  0.34551700  0.54200669     0.05310
C445        C  0.93528457  0.33820476  0.53012614     0.03400
H446        H  0.96523031  0.34916485  0.58576561     0.08510
H447        H  0.93142558  0.33521305  0.50933264     0.07340
C448        C  0.27331534  0.77722141  0.75068564     0.03370
C449        C  0.25050632  0.77273117  0.73516629    -0.12780
C450        C  0.23378523  0.75064830  0.73923353     0.00870
C451        C  0.24118910  0.73250545  0.75878404    -0.11310
C452        C  0.26384651  0.73639823  0.77444289     0.03360
C453        C  0.27885824  0.75938622  0.77113568    -0.10730
H454        H  0.24633456  0.78616934  0.71935001     0.08960
H455        H  0.22967889  0.71487789  0.76150399     0.06490
H456        H  0.29609420  0.76241599  0.78353402     0.06330
N457        N  0.70186074  0.62777714  0.13796546    -0.27050
N458        N  0.69906715  0.62168715  0.16323688    -0.34910
C459        C  0.70539112  0.64234908  0.17839383     0.01290
C460        C  0.71251942  0.66279511  0.16230828     0.07320
C461        C  0.71027208  0.65304985  0.13663287    -0.05780
H462        H  0.70589033  0.64212637  0.19977805     0.07980
H463        H  0.71488486  0.66332019  0.11852984     0.09180
Cu464      Cu  0.69239708  0.58511053  0.17836864     0.44170
Cu465      Cu  0.69487139  0.59986279  0.10755800     0.41990
Cu466      Cu  0.68157606  0.53420583  0.13576689     0.43880
N467        N  0.70113031  0.54747992  0.18895584    -0.34440
N468        N  0.69720814  0.52779344  0.17242344    -0.28690
C469        C  0.71116196  0.50695752  0.18047806    -0.04790
C470        C  0.72469105  0.51419314  0.20308494     0.07430
C471        C  0.71771233  0.53989101  0.20810702     0.01220
H472        H  0.71355323  0.48901097  0.16919906     0.08870
H473        H  0.72662741  0.55297294  0.22251505     0.07950
N474        N  0.67850983  0.54321822  0.09652076    -0.35880
N475        N  0.68470878  0.56590403  0.08536350    -0.28060
C476        C  0.68412475  0.56241354  0.05882371    -0.03300
C477        C  0.67722000  0.53643616  0.05357372     0.05310
C478        C  0.67371883  0.52508918  0.07785671     0.03400
H479        H  0.68907590  0.57735037  0.04450211     0.08510
H480        H  0.66953924  0.50462689  0.08175356     0.07340
N481        N  0.89353264  0.36276851  0.28696121    -0.27050
N482        N  0.86959426  0.36888848  0.29565780    -0.34910
C483        C  0.85310788  0.34860674  0.29191687     0.01290
C484        C  0.86653697  0.32863119  0.27913767     0.07320
C485        C  0.89241161  0.33827165  0.27639904    -0.05780
H486        H  0.83183123  0.34988330  0.29454546     0.07980
H487        H  0.90830640  0.32954447  0.26502524     0.09180
Cu488      Cu  0.85528446  0.40646831  0.29707149     0.44170
Cu489      Cu  0.92381658  0.39152602  0.28626097     0.41990
Cu490      Cu  0.89479089  0.45062450  0.26044847     0.43880
N491        N  0.83951801  0.43726429  0.27626041    -0.34440
N492        N  0.85432363  0.45367895  0.26256542    -0.28690
C493        C  0.83860757  0.47034014  0.24962198    -0.04790
C494        C  0.81237651  0.46374143  0.25483811     0.07430
C495        C  0.81384958  0.44229594  0.27155032     0.01220
H496        H  0.84583929  0.48560962  0.23665512     0.08870
H497        H  0.79791191  0.43000667  0.27850154     0.07950
N498        N  0.93313721  0.44847548  0.27328509    -0.35880
N499        N  0.94353499  0.42818086  0.28548037    -0.28060
C500        C  0.96608644  0.43631792  0.29748979    -0.03300
C501        C  0.97017311  0.46303403  0.29215549     0.05310
C502        C  0.94875611  0.46950674  0.27642656     0.03400
H503        H  0.97750586  0.42381157  0.31013613     0.08510
H504        H  0.94385734  0.48866516  0.26882432     0.07340
N505        N  0.32012393  0.38148741  0.14005804    -0.27050
N506        N  0.32759361  0.38663102  0.16463125    -0.34910
C507        C  0.32048064  0.36678014  0.18034773     0.01290
C508        C  0.30661959  0.34849367  0.16565086     0.07320
C509        C  0.30714205  0.35812951  0.13993570    -0.05780
H510        H  0.32161375  0.36757819  0.20169070     0.07980
H511        H  0.29656415  0.35016511  0.12310733     0.09180
Cu512      Cu  0.33374980  0.42354722  0.18015409     0.44170
Cu513      Cu  0.32473019  0.40930614  0.10946015     0.41990
Cu514      Cu  0.33617277  0.47485610  0.13734984     0.43880
N515        N  0.32032928  0.46011370  0.19135559    -0.34440
N516        N  0.32168416  0.47986124  0.17475123    -0.28690
C517        C  0.30558948  0.49910771  0.18305434    -0.04790
C518        C  0.29353510  0.49120564  0.20625591     0.07430
C519        C  0.30312380  0.46618957  0.21081072     0.01220
H520        H  0.30011847  0.51574409  0.17109099     0.08870
H521        H  0.29568709  0.45235360  0.22521863     0.07950
N522        N  0.33785028  0.46633515  0.09788203    -0.35880
N523        N  0.33282317  0.44324983  0.08684620    -0.28060
C524        C  0.33247508  0.44650582  0.06033451    -0.03300
C525        C  0.33703015  0.47297115  0.05484399     0.05310
C526        C  0.34060876  0.48460600  0.07918456     0.03400
H527        H  0.32885637  0.43082813  0.04634240     0.08510
H528        H  0.34342235  0.50532018  0.08316819     0.07340
N529        N  0.11355332  0.64604427  0.26954966    -0.27050
N530        N  0.13147243  0.64006323  0.25131489    -0.34910
C531        C  0.14470964  0.66173879  0.24416683     0.01290
C532        C  0.13502048  0.68266723  0.25844746     0.07320
C533        C  0.11513317  0.67217352  0.27443099    -0.05780
H534        H  0.16191198  0.66183494  0.23130762     0.07980
H535        H  0.10420160  0.68233238  0.28979614     0.09180
Cu536      Cu  0.14400089  0.60288562  0.24158531     0.44170
Cu537      Cu  0.09115864  0.61668131  0.28878366     0.41990
Cu538      Cu  0.13112992  0.55702004  0.29043382     0.43880
N539        N  0.16543930  0.56876717  0.24443106    -0.34440
N540        N  0.16145916  0.55203514  0.26382998    -0.28690
C541        C  0.17967393  0.53292368  0.26241737    -0.04790
C542        C  0.19585609  0.53798233  0.24093668     0.07430
C543        C  0.18653902  0.56103516  0.23018774     0.01220
H544        H  0.18162706  0.51727691  0.27661672     0.08870
H545        H  0.19511513  0.57191033  0.21394003     0.07950
N546        N  0.09232134  0.55899989  0.30236858    -0.35880
N547        N  0.07688326  0.57974995  0.30124853    -0.28060
C548        C  0.05161530  0.57173420  0.30528481    -0.03300
C549        C  0.05092042  0.54428865  0.30857053     0.05310
C550        C  0.07761913  0.53758272  0.30667303     0.03400
H551        H  0.03545656  0.58530633  0.30440912     0.08510
H552        H  0.08614500  0.51821923  0.30584888     0.07340
N553        N  0.69576809  0.38155757  0.87483451    -0.27050
N554        N  0.69784967  0.38974035  0.85017821    -0.34910
C555        C  0.70325531  0.36965914  0.83407452     0.01290
C556        C  0.70478349  0.34711352  0.84871858     0.07320
C557        C  0.69988086  0.35522031  0.87476849    -0.05780
H558        H  0.70628525  0.37146472  0.81296805     0.07980
H559        H  0.69901379  0.34301685  0.89215072     0.09180
Cu560      Cu  0.69579892  0.42736548  0.83734569     0.44170
Cu561      Cu  0.68736694  0.40893840  0.90552677     0.41990
Cu562      Cu  0.67634419  0.47673610  0.87733515     0.43880
N563        N  0.70238659  0.46526318  0.82691359    -0.34440
N564        N  0.69474751  0.48482728  0.84213925    -0.28690
C565        C  0.70641607  0.50707883  0.83382884    -0.04790
C566        C  0.72260686  0.50076450  0.81252635     0.07430
C567        C  0.71919666  0.47415351  0.80851242     0.01220
H568        H  0.70446635  0.52581516  0.84367365     0.08870
H569        H  0.73018534  0.46176120  0.79494616     0.07950
N570        N  0.67201577  0.46630526  0.91620264    -0.35880
N571        N  0.67754994  0.44343449  0.92726294    -0.28060
C572        C  0.67700491  0.44693342  0.95381730    -0.03300
C573        C  0.67036992  0.47290872  0.95922110     0.05310
C574        C  0.66765218  0.48441882  0.93496464     0.03400
H575        H  0.68205386  0.43204417  0.96807652     0.08510
H576        H  0.66467879  0.50506814  0.93114313     0.07340
N577        N  0.89418114  0.65113768  0.73197820    -0.27050
N578        N  0.86916832  0.64545947  0.72633936    -0.34910
C579        C  0.85410840  0.66673168  0.72982250     0.01290
C580        C  0.86998847  0.68730379  0.73781573     0.07320
C581        C  0.89540223  0.67672652  0.73939790    -0.05780
H582        H  0.83270138  0.66674228  0.72830147     0.07980
H583        H  0.91317409  0.68666028  0.74612481     0.09180
Cu584      Cu  0.85297233  0.60883151  0.72118024     0.44170
Cu585      Cu  0.92396414  0.62204696  0.73110829     0.41990
Cu586      Cu  0.89091115  0.56223254  0.75140324     0.43880
N587        N  0.83613921  0.57574053  0.73695851    -0.34440
N588        N  0.85075137  0.55876756  0.74989423    -0.28690
C589        C  0.83499000  0.54155639  0.76228741    -0.04790
C590        C  0.80910424  0.54812670  0.75678899     0.07430
C591        C  0.81040827  0.57005853  0.74092180     0.01220
H592        H  0.84180695  0.52640969  0.77550862     0.08870
H593        H  0.79406942  0.58222583  0.73470502     0.07950
N594        N  0.92923056  0.56371067  0.73888836    -0.35880
N595        N  0.94215190  0.58474585  0.73052785    -0.28060
C596        C  0.96624451  0.57690359  0.72162708    -0.03300
C597        C  0.96772222  0.54976126  0.72432421     0.05310
C598        C  0.94411804  0.54231969  0.73551700     0.03400
H599        H  0.98135691  0.58980696  0.71368851     0.08510
H600        H  0.93797790  0.52260868  0.74060226     0.07340
N601        N  0.12196565  0.36962720  0.72611807    -0.27050
N602        N  0.14727863  0.37341597  0.72020011    -0.34910
C603        C  0.16093037  0.35149744  0.72439427     0.01290
C604        C  0.14397761  0.33218031  0.73329200     0.07320
C605        C  0.11910670  0.34436204  0.73412986    -0.05780
H606        H  0.18221253  0.35002379  0.72193741     0.07980
H607        H  0.10041072  0.33570858  0.73996771     0.09180
Cu608      Cu  0.16599803  0.40775437  0.71047190     0.44170
Cu609      Cu  0.09401684  0.40060652  0.72328037     0.41990
Cu610      Cu  0.13003502  0.46240009  0.70822307     0.43880
N611        N  0.18360730  0.44324748  0.71778765    -0.34440
N612        N  0.16901507  0.46453499  0.71856115    -0.28690
C613        C  0.18202511  0.48346970  0.73180117    -0.04790
C614        C  0.20607386  0.47334338  0.73995831     0.07430
C615        C  0.20670015  0.44795495  0.73003571     0.01220
H616        H  0.17355702  0.50221587  0.73729012     0.08870
H617        H  0.22160410  0.43323219  0.73340779     0.07950
N618        N  0.08984281  0.45818990  0.70797999    -0.35880
N619        N  0.07597323  0.43743857  0.71568979    -0.28060
C620        C  0.05039216  0.44503846  0.71860670    -0.03300
C621        C  0.04870001  0.47153999  0.71220975     0.05310
C622        C  0.07393082  0.47890443  0.70534663     0.03400
H623        H  0.03458480  0.43269894  0.72610643     0.08510
H624        H  0.08076465  0.49860573  0.70113309     0.07340
N625        N  0.32055166  0.62645120  0.87260347    -0.27050
N626        N  0.33097994  0.61981904  0.84946675    -0.34910
C627        C  0.32628290  0.63871519  0.83190257     0.01290
C628        C  0.31092082  0.65806687  0.84350525     0.07320
C629        C  0.30790670  0.64967234  0.86964839    -0.05780
H630        H  0.33084182  0.63669695  0.81107948     0.07980
H631        H  0.29543639  0.65822915  0.88473141     0.09180
Cu632      Cu  0.33678020  0.58203704  0.83594701     0.44170
Cu633      Cu  0.32154859  0.60128358  0.90591943     0.41990
Cu634      Cu  0.31708873  0.53625549  0.88086945     0.43880
N635        N  0.31534337  0.54932200  0.82439005    -0.34440
N636        N  0.30684641  0.53275826  0.84238223    -0.28690
C637        C  0.28828217  0.51704108  0.83202277    -0.04790
C638        C  0.28457605  0.52402908  0.80594896     0.07430
C639        C  0.30245812  0.54444099  0.80161001     0.01220
H640        H  0.27705502  0.50273423  0.84321568     0.08870
H641        H  0.30526750  0.55572078  0.78387742     0.07950
N642        N  0.32544804  0.54409091  0.91920658    -0.35880
N643        N  0.32651478  0.56772636  0.93001176    -0.28060
C644        C  0.33046069  0.56470211  0.95631986    -0.03300
C645        C  0.33200845  0.53785490  0.96160677     0.05310
C646        C  0.32864782  0.52570461  0.93757089     0.03400
H647        H  0.33104270  0.58063692  0.97052488     0.08510
H648        H  0.32762076  0.50480125  0.93377023     0.07340
C649        C  0.22954805  0.51317426  0.75522313    -0.05540
C650        C  0.22509760  0.48614095  0.75814835     0.00390
C651        C  0.23859243  0.47244741  0.77833336    -0.08180
C652        C  0.25923617  0.48532059  0.79159634    -0.05560
C653        C  0.26430850  0.51223168  0.78829641     0.00370
C654        C  0.24797625  0.52685683  0.77097633    -0.08090
C655        C  0.24862863  0.55662626  0.76963968     0.62280
H656        H  0.21836274  0.52366477  0.74043839     0.12980
H657        H  0.27096126  0.47432615  0.80558926     0.12990
C658        C  0.23058467  0.44530553  0.78797070     0.62520
F659        F  0.22603442  0.56635686  0.75771250    -0.22650
F660        F  0.27026953  0.56474657  0.75497284    -0.19980
F661        F  0.24980115  0.56736313  0.79480633    -0.19650
F662        F  0.24495980  0.42638098  0.77457312    -0.19710
F663        F  0.20370039  0.44078928  0.78468725    -0.20030
F664        F  0.23571939  0.44286367  0.81473899    -0.22700
C665        C  0.00712296  0.52683769  0.74040022    -0.05540
C666        C  0.98983482  0.53156241  0.71938486     0.00390
C667        C  0.99083603  0.51547113  0.69648543    -0.08180
C668        C  0.00968083  0.49515438  0.69524700    -0.05560
C669        C  0.02688959  0.49034421  0.71637587     0.00370
C670        C  0.02578364  0.50644116  0.73930405    -0.08090
C671        C  0.04408344  0.50191003  0.76260811     0.62280
H672        H  0.00541228  0.53895433  0.75799191     0.12980
H673        H  0.01135603  0.48303468  0.67765406     0.12990
C674        C  0.97206507  0.51989841  0.67356456     0.62520
F675        F  0.03841247  0.51857956  0.78357845    -0.22650
F676        F  0.07014355  0.50621691  0.75515954    -0.19980
F677        F  0.04127534  0.47637423  0.77130999    -0.19650
F678        F  0.97498538  0.54529041  0.66446566    -0.19710
F679        F  0.94613607  0.51610274  0.68176621    -0.20030
F680        F  0.97701551  0.50283988  0.65272666    -0.22700
C681        C  0.74430211  0.51389857  0.77141489    -0.05540
C682        C  0.74303339  0.51658105  0.79905128     0.00390
C683        C  0.76361779  0.53006481  0.81274201    -0.08180
C684        C  0.78439605  0.54097962  0.79786275    -0.05560
C685        C  0.78565160  0.53787657  0.77038503     0.00370
C686        C  0.76571994  0.52384827  0.75682361    -0.08090
C687        C  0.76803145  0.51806733  0.72743620     0.62280
H688        H  0.72882809  0.50286716  0.76144610     0.12980
H689        H  0.80028941  0.55162147  0.80761604     0.12990
C690        C  0.76476402  0.53192625  0.84273890     0.62520
F691        F  0.74747874  0.50227102  0.71849503    -0.22650
F692        F  0.79165787  0.50521174  0.72234475    -0.19980
F693        F  0.76754721  0.54123599  0.71340401    -0.19650
F694        F  0.76187034  0.50728709  0.85373632    -0.19710
F695        F  0.74491932  0.54824571  0.85189976    -0.20030
F696        F  0.78874072  0.54215543  0.85142025    -0.22700
C697        C  0.31274118  0.50491962  0.99148220    -0.05540
C698        C  0.33301923  0.52335953  0.98688652     0.00390
C699        C  0.35526521  0.52410352  0.00380737    -0.08180
C700        C  0.35618228  0.50645730  0.02513149    -0.05560
C701        C  0.33593418  0.48785526  0.02968427     0.00370
C702        C  0.31370705  0.48708441  0.01257449    -0.08090
C703        C  0.29085366  0.46795953  0.01650759     0.62280
H704        H  0.29618403  0.50430294  0.97788731     0.12980
H705        H  0.37282339  0.50709670  0.03862352     0.12990
C706        C  0.37817298  0.54290247  0.99895561     0.62520
F707        F  0.26998576  0.47297188  0.99955303    -0.22650
F708        F  0.28126592  0.46977142  0.04210301    -0.19980
F709        F  0.29942046  0.44269715  0.01151167    -0.19650
F710        F  0.36940780  0.56846337  0.00136993    -0.19710
F711        F  0.38832690  0.53898843  0.97380196    -0.20030
F712        F  0.39855515  0.53936005  0.01685933    -0.22700
C713        C  0.24422116  0.53919738  0.23560243    -0.05540
C714        C  0.22065386  0.52464226  0.23373013     0.00390
C715        C  0.22111082  0.49858351  0.22396611    -0.08180
C716        C  0.24560485  0.48793918  0.21608951    -0.05560
C717        C  0.26914115  0.50276049  0.21737553     0.00370
C718        C  0.26863876  0.52865545  0.22758412    -0.08090
C719        C  0.29377924  0.54494631  0.23032530     0.62280
H720        H  0.24324197  0.55912013  0.24314019     0.12980
H721        H  0.24646308  0.46821083  0.20804010     0.12990
C722        C  0.19577190  0.48261879  0.22080933     0.62520
F723        F  0.28928249  0.56809760  0.24406003    -0.22650
F724        F  0.30352679  0.55133158  0.20562378    -0.19980
F725        F  0.31270550  0.53085532  0.24390053    -0.19650
F726        F  0.17786051  0.49624222  0.20547903    -0.19710
F727        F  0.18461920  0.47788210  0.24531920    -0.20030
F728        F  0.20042251  0.45863514  0.20868511    -0.22700
C729        C  0.98267821  0.50911453  0.30305840    -0.05540
C730        C  0.99052574  0.48261147  0.30177532     0.00390
C731        C  0.01736687  0.47671464  0.30737850    -0.08180
C732        C  0.03523861  0.49763244  0.31188852    -0.05560
C733        C  0.02829195  0.52439482  0.30914441     0.00370
C734        C  0.00080206  0.53013311  0.30598314    -0.08090
C735        C  0.98985922  0.55782668  0.30517019     0.62280
H736        H  0.96186441  0.51346672  0.30080337     0.12980
H737        H  0.05519059  0.49269360  0.31732498     0.12990
C738        C  0.02776361  0.44879236  0.30837094     0.62520
F739        F  0.96238048  0.55820694  0.30469850    -0.22650
F740        F  0.99859513  0.57018251  0.28247074    -0.19980
F741        F  0.99766112  0.57154769  0.32752369    -0.19650
F742        F  0.02127146  0.43542430  0.28539742    -0.19710
F743        F  0.01709119  0.43617397  0.33007042    -0.20030
F744        F  0.05511753  0.44800748  0.31079276    -0.22700
C745        C  0.69660924  0.49434200  0.99450387    -0.05540
C746        C  0.67156724  0.48769930  0.98439519     0.00390
C747        C  0.64844327  0.49819802  0.99630675    -0.08180
C748        C  0.65117644  0.51496377  0.01835610    -0.05560
C749        C  0.67621117  0.52188756  0.02826256     0.00370
C750        C  0.69934436  0.51136485  0.01638772    -0.08090
C751        C  0.72669413  0.51795779  0.02704302     0.62280
H752        H  0.71403396  0.48648317  0.98473794     0.12980
H753        H  0.63374242  0.52267730  0.02823037     0.12990
C754        C  0.62104186  0.49130849  0.98593046     0.62520
F755        F  0.74657095  0.50562569  0.01274060    -0.22650
F756        F  0.72857308  0.51003990  0.05307333    -0.19980
F757        F  0.73092827  0.54474501  0.02571281    -0.19650
F758        F  0.61779185  0.46434034  0.98563666    -0.19710
F759        F  0.61813754  0.50074652  0.96054644    -0.20030
F760        F  0.60113367  0.50202555  0.00147269    -0.22700
C761        C  0.74325603  0.49113613  0.24103431    -0.05540
C762        C  0.74690840  0.50038452  0.21534335     0.00390
C763        C  0.77189950  0.49806970  0.20280811    -0.08180
C764        C  0.79217743  0.48497805  0.21618486    -0.05560
C765        C  0.78875902  0.47548861  0.24206027     0.00370
C766        C  0.76387863  0.47903125  0.25498840    -0.08090
C767        C  0.75864739  0.47086876  0.28336322     0.62280
H768        H  0.72396023  0.49367588  0.25018273     0.12980
H769        H  0.81107937  0.48222143  0.20638029     0.12990
C770        C  0.77755201  0.51028233  0.17598266     0.62520
F771        F  0.73617614  0.48283307  0.29354964    -0.22650
F772        F  0.77969424  0.47797298  0.29940183    -0.19980
F773        F  0.75458249  0.44406989  0.28435407    -0.19650
F774        F  0.77149745  0.53673172  0.17671950    -0.19710
F775        F  0.76249481  0.49804835  0.15671465    -0.20030
F776        F  0.80399746  0.50797653  0.16881578    -0.22700
C777        C  0.27983737  0.72248080  0.81896349    -0.05540
C778        C  0.27357585  0.71554242  0.79269580     0.00390
C779        C  0.27909794  0.68964516  0.78382644    -0.08180
C780        C  0.28879346  0.67140432  0.80205835    -0.05560
C781        C  0.29614491  0.67838370  0.82802935     0.00370
C782        C  0.29169670  0.70459177  0.83664312    -0.08090
C783        C  0.30006356  0.71412541  0.86384561     0.62280
H784        H  0.27587402  0.74240462  0.82536510     0.12980
H785        H  0.29135281  0.65130245  0.79558541     0.12990
C786        C  0.27680895  0.68120565  0.75494808     0.62520
F787        F  0.29833929  0.74115821  0.86615689    -0.22650
F788        F  0.32610454  0.70718309  0.86866170    -0.19980
F789        F  0.28369306  0.70323114  0.88281161    -0.19650
F790        F  0.28636926  0.70065338  0.73844183    -0.19710
F791        F  0.25068361  0.67568350  0.74881097    -0.20030
F792        F  0.29150208  0.65882652  0.74979202    -0.22700
C793        C  0.79074103  0.22065868  0.48574955    -0.05540
C794        C  0.76335796  0.22405271  0.48267246     0.00390
C795        C  0.75118513  0.24768173  0.49070263    -0.08180
C796        C  0.76725701  0.26773773  0.50107820    -0.05560
C797        C  0.79468988  0.26444263  0.50404611     0.00370
C798        C  0.80676255  0.24030349  0.49685253    -0.08090
C799        C  0.83592395  0.23449688  0.50187854     0.62280
H800        H  0.79946817  0.20221441  0.47954463     0.12980
H801        H  0.75845343  0.28607082  0.50748927     0.12990
C802        C  0.72133394  0.25115072  0.48950656     0.62520
F803        F  0.84171613  0.20820385  0.49796087    -0.22650
F804        F  0.84245510  0.24074309  0.52771129    -0.19980
F805        F  0.85164884  0.24879181  0.48476344    -0.19650
F806        F  0.70892062  0.23086513  0.50283591    -0.19710
F807        F  0.71309051  0.25108415  0.46349128    -0.20030
F808        F  0.71341296  0.27456100  0.50103277    -0.22700
C809        C  0.98172296  0.35443973  0.49912946    -0.05540
C810        C  0.98421765  0.35055612  0.52668574     0.00390
C811        C  0.01025515  0.34980788  0.53725477    -0.08180
C812        C  0.03192607  0.35079837  0.51964771    -0.05560
C813        C  0.02917832  0.34949266  0.49183612     0.00370
C814        C  0.00328221  0.35267461  0.48137367    -0.08090
C815        C  0.99765210  0.35400761  0.45194727     0.62280
H816        H  0.96231991  0.35812913  0.49112616     0.12980
H817        H  0.05150218  0.35193613  0.52799094     0.12990
C818        C  0.01594083  0.34756082  0.56662474     0.62520
F819        F  0.97089280  0.35704435  0.44665195    -0.22650
F820        F  0.00560870  0.33098127  0.43974949    -0.19980
F821        F  0.01076286  0.37534513  0.44122649    -0.19650
F822        F  0.00464497  0.32480622  0.57639473    -0.19710
F823        F  0.00610557  0.36934588  0.57972427    -0.20030
F824        F  0.04285920  0.34638548  0.57193348    -0.22700
C825        C  0.21792843  0.21681862  0.52255365    -0.05540
C826        C  0.24528001  0.21891754  0.52703272     0.00390
C827        C  0.25941777  0.24106931  0.51761496    -0.08180
C828        C  0.24504199  0.26145079  0.50582942    -0.05560
C829        C  0.21749567  0.25970286  0.50237508     0.00370
C830        C  0.20389716  0.23625113  0.50927039    -0.08090
C831        C  0.17507691  0.23053779  0.50230421     0.62280
H832        H  0.20735985  0.19957115  0.52942688     0.12980
H833        H  0.25516672  0.27921095  0.49971374     0.12990
C834        C  0.28941841  0.24305641  0.51926930     0.62520
F835        F  0.17106745  0.20384354  0.49864437    -0.22650
F836        F  0.16787341  0.24264628  0.47902527    -0.19980
F837        F  0.15872607  0.23883693  0.52266304    -0.19650
F838        F  0.30081609  0.22007740  0.51008801    -0.19710
F839        F  0.29702750  0.24749805  0.54510789    -0.20030
F840        F  0.29917180  0.26348724  0.50409672    -0.22700
C841        C  0.73857951  0.00083769  0.48586655    -0.05540
C842        C  0.71896170  0.02013669  0.48449773     0.00390
C843        C  0.69760148  0.02001200  0.50284163    -0.08180
C844        C  0.69682695  0.00043995  0.52232647    -0.05560
C845        C  0.71676397  0.98149033  0.52402241     0.00370
C846        C  0.73787250  0.98139124  0.50546364    -0.08090
C847        C  0.75973231  0.96105250  0.50669331     0.62280
H848        H  0.75493136  0.00165997  0.47193969     0.12980
H849        H  0.68054178  0.99964212  0.53633807     0.12990
C850        C  0.67549075  0.04014421  0.50150608     0.62520
F851        F  0.77915790  0.96538855  0.48777759    -0.22650
F852        F  0.74924572  0.93628063  0.50244672    -0.19980
F853        F  0.77159714  0.96194921  0.53129913    -0.19650
F854        F  0.66483709  0.04027788  0.47634178    -0.19710
F855        F  0.68523559  0.06485498  0.50746718    -0.20030
F856        F  0.65522834  0.03463423  0.51920856    -0.22700
C857        C  0.79560962  0.76214026  0.54009351    -0.05540
C858        C  0.79591746  0.76162160  0.51248472     0.00390
C859        C  0.77722732  0.77626499  0.49815704    -0.08180
C860        C  0.75711650  0.78919379  0.51217357    -0.05560
C861        C  0.75622519  0.78979274  0.54003400     0.00370
C862        C  0.77643152  0.77646241  0.55438638    -0.08090
C863        C  0.77861106  0.77712329  0.58432370     0.62280
H864        H  0.81056091  0.75094582  0.55038233     0.12980
H865        H  0.74193254  0.79926841  0.50115053     0.12990
C866        C  0.77927785  0.77937380  0.46831591     0.62520
F867        F  0.80265040  0.76725321  0.59288515    -0.22650
F868        F  0.75879492  0.76177537  0.59523270    -0.19980
F869        F  0.77686116  0.80264089  0.59361122    -0.19650
F870        F  0.77354112  0.75588629  0.45578841    -0.19710
F871        F  0.80470475  0.78727849  0.46153295    -0.20030
F872        F  0.76184002  0.79807033  0.45900723    -0.22700
C873        C  0.30626302  0.01645042  0.47790185    -0.05540
C874        C  0.30676908  0.99001118  0.48515554     0.00390
C875        C  0.31130293  0.98365596  0.51212540    -0.08180
C876        C  0.30890400  0.00350499  0.53138727    -0.05560
C877        C  0.30507226  0.02971450  0.52427607     0.00370
C878        C  0.30698129  0.03655187  0.49705750    -0.08090
C879        C  0.31007115  0.06446144  0.48719431     0.62280
H880        H  0.30447666  0.02151165  0.45719602     0.12820
H881        H  0.30922036  0.99827823  0.55212710     0.12990
C882        C  0.31880021  0.95648531  0.52156901     0.62520
F883        F  0.32999800  0.06534510  0.46831567    -0.22650
F884        F  0.31709561  0.08181790  0.50712200    -0.19980
F885        F  0.28663273  0.07252985  0.47572212    -0.19650
F886        F  0.32634930  0.94006259  0.50104257    -0.19710
F887        F  0.29763229  0.94539316  0.53498301    -0.20030
F888        F  0.34012888  0.95847407  0.53864533    -0.22700
C889        C  0.17175925  0.71895544  0.70774531    -0.05540
C890        C  0.17627444  0.72444816  0.68098913     0.00390
C891        C  0.19592715  0.74329944  0.67440509    -0.08180
C892        C  0.21422274  0.75113918  0.69372709    -0.05560
C893        C  0.21114798  0.74447212  0.72056338     0.00370
C894        C  0.18764709  0.73032189  0.72784522    -0.08090
C895        C  0.17786284  0.72726725  0.75607198     0.62280
H896        H  0.15579946  0.70562322  0.71301682     0.12980
H897        H  0.23125136  0.76235482  0.68720457     0.12990
C898        C  0.19840572  0.75585096  0.64734046     0.62520
F899        F  0.15092798  0.73239170  0.75717089    -0.22650
F900        F  0.19012737  0.74456652  0.77334144    -0.19980
F901        F  0.18197675  0.70178523  0.76433918    -0.19650
F902        F  0.17632607  0.75144840  0.63173350    -0.19710
F903        F  0.22068103  0.74633221  0.63452565    -0.20030
F904        F  0.20106319  0.78275153  0.65036351    -0.22700
C905        C  0.00031774  0.66643690  0.53688327    -0.05540
C906        C  0.02474502  0.66195539  0.52438303     0.00390
C907        C  0.02475943  0.65478310  0.49708849    -0.08180
C908        C  0.00164457  0.65878285  0.48219605    -0.05560
C909        C  0.97790471  0.66656165  0.49426701     0.00370
C910        C  0.97656637  0.66717635  0.52236511    -0.08090
C911        C  0.95077520  0.66811733  0.53786466     0.62280
H912        H  0.99974232  0.67013002  0.55800053     0.12980
H913        H  0.00242768  0.65647343  0.46088537     0.12990
C914        C  0.04833367  0.64278867  0.48277682     0.62520
F915        F  0.95132912  0.64937806  0.55754792    -0.22650
F916        F  0.92890849  0.66273164  0.52226330    -0.19980
F917        F  0.94792378  0.69257589  0.54948073    -0.19650
F918        F  0.06761537  0.63408488  0.49998402    -0.19710
F919        F  0.05926369  0.66098231  0.46567389    -0.20030
F920        F  0.03992674  0.62127047  0.46817725    -0.22700
C921        C  0.24054010  0.75378405  0.50251113    -0.05540
C922        C  0.21299280  0.75722211  0.50475451     0.00390
C923        C  0.20137845  0.78103612  0.49612669    -0.08180
C924        C  0.21759693  0.79932507  0.48328507    -0.05560
C925        C  0.24506033  0.79579150  0.48073305     0.00370
C926        C  0.25699730  0.77302762  0.49115830    -0.08090
C927        C  0.28687061  0.76943173  0.49136973     0.62280
H928        H  0.24913014  0.73579391  0.50981511     0.12980
H929        H  0.20878493  0.81697836  0.47540438     0.12990
C930        C  0.17256754  0.78844494  0.50131596     0.62520
F931        F  0.29424286  0.74821973  0.50661974    -0.22650
F932        F  0.29900608  0.79158498  0.50178112    -0.19980
F933        F  0.29600094  0.76510251  0.46596297    -0.19650
F934        F  0.16449959  0.78031240  0.52612731    -0.19710
F935        F  0.15645522  0.77737681  0.48218677    -0.20030
F936        F  0.16913936  0.81539469  0.50051490    -0.22700
C937        C  0.69595356  0.31531941  0.81332684    -0.05540
C938        C  0.71034680  0.32112837  0.83636075     0.00390
C939        C  0.73318074  0.30618435  0.84220705    -0.08180
C940        C  0.74188401  0.28721443  0.82362710    -0.05560
C941        C  0.72881855  0.28326041  0.79935023     0.00370
C942        C  0.70504568  0.29728297  0.79426258    -0.08090
C943        C  0.69021697  0.29511090  0.76810688     0.62280
H944        H  0.67838340  0.32681035  0.80939074     0.12980
H945        H  0.75992749  0.27634821  0.82719332     0.12990
C946        C  0.74903129  0.31121707  0.86715011     0.62520
F947        F  0.67072468  0.31403965  0.76588782    -0.22650
F948        F  0.67796321  0.27090339  0.76605631    -0.19980
F949        F  0.70753089  0.29839740  0.74714084    -0.19650
F950        F  0.73314500  0.30669979  0.88899309    -0.19710
F951        F  0.75798704  0.33691111  0.86767892    -0.20030
F952        F  0.77086310  0.29491187  0.86877287    -0.22700
C953        C  0.82118004  0.26258879  0.72111231    -0.05540
C954        C  0.80119253  0.27914256  0.73130284     0.00390
C955        C  0.80156635  0.30622988  0.72409396    -0.08180
C956        C  0.82103242  0.31498759  0.70613559    -0.05560
C957        C  0.83888174  0.29778889  0.69393208     0.00370
C958        C  0.83948194  0.27126445  0.70184261    -0.08090
C959        C  0.85801228  0.25189441  0.68845558     0.62280
H960        H  0.82096616  0.24213645  0.72680495     0.12980
H961        H  0.82101188  0.33516253  0.69950013     0.12990
C962        C  0.78055914  0.32579488  0.73307690     0.62520
F963        F  0.85580611  0.22703706  0.69916383    -0.22650
F964        F  0.88396207  0.26030744  0.69137782    -0.19980
F965        F  0.85210756  0.25011732  0.66180738    -0.19650
F966        F  0.78408678  0.33205537  0.75943209    -0.19710
F967        F  0.75546957  0.31550711  0.72916714    -0.20030
F968        F  0.78199114  0.34904161  0.71908371    -0.22700
C969        C  0.75939516  0.86892854  0.72654475    -0.05540
C970        C  0.75476260  0.85500429  0.70288799     0.00390
C971        C  0.76347735  0.82860257  0.70076615    -0.08180
C972        C  0.77230897  0.81593717  0.72349698    -0.05560
C973        C  0.77580305  0.82926867  0.74758040     0.00370
C974        C  0.77052878  0.85655055  0.74890653    -0.08090
C975        C  0.77716632  0.87248760  0.77341540     0.62280
H976        H  0.75339079  0.88928619  0.72768745     0.12980
H977        H  0.77689673  0.79517836  0.72231693     0.12990
C978        C  0.76417567  0.81291647  0.67508082     0.62520
F979        F  0.77367706  0.89908650  0.76931122    -0.22650
F980        F  0.80340963  0.86845856  0.78016373    -0.19980
F981        F  0.76107427  0.86506069  0.79423299    -0.19650
F982        F  0.76389579  0.82879730  0.65301915    -0.19710
F983        F  0.74277487  0.79585017  0.67426540    -0.20030
F984        F  0.78727016  0.79832791  0.67377183    -0.22700
C985        C  0.86527165  0.72262499  0.77179118    -0.05540
C986        C  0.85962289  0.71329589  0.74616649     0.00390
C987        C  0.83990260  0.72609386  0.73106409    -0.08180
C988        C  0.82416918  0.74525042  0.74326095    -0.05560
C989        C  0.82864150  0.75359103  0.76933132     0.00370
C990        C  0.85024282  0.74302334  0.78355191    -0.08090
C991        C  0.85736445  0.75336134  0.81079813     0.62280
H992        H  0.88053493  0.71288913  0.78306392     0.12980
H993        H  0.80804982  0.75389282  0.73217917     0.12990
C994        C  0.83438949  0.72010076  0.70213580     0.62520
F995        F  0.88053415  0.74226767  0.82009122    -0.22650
F996        F  0.83725028  0.74774396  0.82853446    -0.19980
F997        F  0.86102347  0.78025870  0.80974813    -0.19650
F998        F  0.81076272  0.70634308  0.70004244    -0.19710
F999        F  0.85443685  0.70578682  0.69023685    -0.20030
F1000       F  0.83210166  0.74335768  0.68834442    -0.22700
C1001       C  0.52401087  0.78406225  0.24670842    -0.05540
C1002       C  0.50682977  0.79700493  0.26425317     0.00390
C1003       C  0.47905487  0.79433616  0.26149960    -0.08180
C1004       C  0.46924282  0.77967834  0.24010489    -0.05560
C1005       C  0.48640641  0.76833343  0.22145187     0.00370
C1006       C  0.51419426  0.76978242  0.22501242    -0.08090
C1007       C  0.53329677  0.75637809  0.20604075     0.62280
H1008       H  0.54521558  0.78643539  0.24933158     0.12980
H1009       H  0.44803126  0.77800614  0.23705636     0.12990
C1010       C  0.45997128  0.80700495  0.28099540     0.62520
F1011       F  0.55916524  0.75743453  0.21513555    -0.22650
F1012       F  0.53261095  0.76848453  0.18169224    -0.19980
F1013       F  0.52626007  0.73026083  0.20305744    -0.19650
F1014       F  0.46141091  0.83401028  0.27906263    -0.19710
F1015       F  0.46647412  0.79966887  0.30643734    -0.20030
F1016       F  0.43396235  0.79947269  0.27633093    -0.22700
C1017       C  0.75248402  0.76383744  0.84672790    -0.05540
C1018       C  0.74660740  0.77294794  0.82117043     0.00390
C1019       C  0.72012832  0.77067824  0.81179610    -0.08180
C1020       C  0.70051277  0.76097921  0.82894547    -0.05560
C1021       C  0.70638308  0.75076736  0.85403064     0.00370
C1022       C  0.73295315  0.75225645  0.86319028    -0.08090
C1023       C  0.74101649  0.74108531  0.88968899     0.62280
H1024       H  0.77279186  0.76542546  0.85350898     0.12980
H1025       H  0.68014753  0.76058270  0.82222199     0.12990
C1026       C  0.71214546  0.77655432  0.78338918     0.62520
F1027       F  0.76831195  0.74095882  0.89274392    -0.22650
F1028       F  0.73206230  0.71549144  0.89192192    -0.19980
F1029       F  0.73039607  0.75616977  0.90984329    -0.19650
F1030       F  0.73163689  0.76866293  0.76577116    -0.19710
F1031       F  0.70744537  0.80307632  0.78054624    -0.20030
F1032       F  0.68912328  0.76325848  0.77650727    -0.22700
C1033       C  0.50449728  0.71052351  0.98318295    -0.05540
C1034       C  0.53064280  0.71370937  0.99259677     0.00390
C1035       C  0.53496442  0.71344816  0.02023709    -0.08180
C1036       C  0.51269644  0.71342467  0.03716277    -0.05560
C1037       C  0.48648437  0.71448049  0.02753865     0.00370
C1038       C  0.48221853  0.71146177  0.00002472    -0.08090
C1039       C  0.45461659  0.71058430  0.98807467     0.62280
H1040       H  0.50152918  0.70894968  0.96205199     0.12980
H1041       H  0.51565526  0.71417787  0.05833725     0.12990
C1042       C  0.56258946  0.71429177  0.03206461     0.62520
F1043       F  0.45538459  0.71005319  0.96070480    -0.22650
F1044       F  0.44037530  0.73251657  0.99569674    -0.19980
F1045       F  0.44160790  0.68813900  0.99629519    -0.19650
F1046       F  0.57622643  0.73614991  0.02318245    -0.19710
F1047       F  0.57611963  0.69178429  0.02497000    -0.20030
F1048       F  0.56191250  0.71549961  0.05941593    -0.22700
C1049       C  0.30893059  0.83780402  0.72119441    -0.05540
C1050       C  0.33547620  0.82954174  0.72207672     0.00390
C1051       C  0.34146642  0.80646177  0.73647338    -0.08180
C1052       C  0.32066663  0.78993025  0.74431299    -0.05560
C1053       C  0.29387156  0.79747843  0.74297051     0.00370
C1054       C  0.28820647  0.82301859  0.73301584    -0.08090
C1055       C  0.26122448  0.83595696  0.73503080     0.62280
H1056       H  0.30432983  0.85606869  0.71136961     0.12980
H1057       H  0.32583531  0.77080811  0.75190449     0.12990
C1058       C  0.36922186  0.79866664  0.74508405     0.62520
F1059       F  0.26430042  0.86181170  0.74305182    -0.22650
F1060       F  0.24488277  0.82390930  0.75334722    -0.19980
F1061       F  0.24913444  0.83556930  0.71052671    -0.19650
F1062       F  0.38685791  0.81952225  0.74464148    -0.19710
F1063       F  0.37849577  0.77862285  0.72902820    -0.20030
F1064       F  0.36843731  0.78971727  0.77087222    -0.22700
C1065       C  0.51233750  0.77409090  0.75374583    -0.05540
C1066       C  0.51291071  0.80157707  0.75670818     0.00390
C1067       C  0.52393433  0.81276672  0.78017965    -0.08180
C1068       C  0.53537246  0.79590639  0.79863326    -0.05560
C1069       C  0.53445183  0.76859614  0.79571207     0.00370
C1070       C  0.52229096  0.75730706  0.77325879    -0.08090
C1071       C  0.51866532  0.72784316  0.77052517     0.62280
H1072       H  0.50361539  0.76573579  0.73605441     0.12980
H1073       H  0.54488322  0.80405558  0.81604442     0.12990
C1074       C  0.52309680  0.84188797  0.78716422     0.62520
F1075       F  0.50333186  0.72126787  0.74879096    -0.22650
F1076       F  0.50612519  0.71812300  0.79281115    -0.19980
F1077       F  0.54305240  0.71591041  0.76758288    -0.19650
F1078       F  0.49862232  0.85243376  0.78116052    -0.19710
F1079       F  0.54303090  0.85504643  0.77382716    -0.20030
F1080       F  0.52708804  0.84614380  0.81394744    -0.22700
C1081       C  0.51659203  0.03293929  0.34968538    -0.05540
C1082       C  0.48915326  0.02864384  0.34613585     0.00390
C1083       C  0.47953701  0.00246736  0.34627526    -0.08180
C1084       C  0.49812474  0.98187331  0.34654822    -0.05560
C1085       C  0.52576380  0.98638133  0.34558149     0.00370
C1086       C  0.53522117  0.01243131  0.34875647    -0.08090
C1087       C  0.56459576  0.01907914  0.34989039     0.62280
H1088       H  0.52359425  0.05296825  0.35151700     0.12980
H1089       H  0.49109200  0.96178531  0.34587790     0.12990
C1090       C  0.45015367  0.99591147  0.34508251     0.62520
F1091       F  0.56907989  0.04590067  0.35079817    -0.22650
F1092       F  0.57743139  0.00936069  0.32771918    -0.19980
F1093       F  0.57545501  0.00845153  0.37244455    -0.19650
F1094       F  0.43894687  0.00685594  0.32282700    -0.19710
F1095       F  0.43771973  0.00540204  0.36755325    -0.20030
F1096       F  0.44560030  0.96910573  0.34395819    -0.22700
C1097       C  0.54548799  0.23949762  0.23879991    -0.05540
C1098       C  0.53043722  0.24288429  0.21572385     0.00390
C1099       C  0.50320048  0.23543874  0.21561717    -0.08180
C1100       C  0.49268996  0.22300968  0.23804386    -0.05560
C1101       C  0.50825801  0.21834606  0.26035028     0.00370
C1102       C  0.53480113  0.22713225  0.26118767    -0.08090
C1103       C  0.55165955  0.22307053  0.28559567     0.62280
H1104       H  0.56611613  0.24552076  0.23877666     0.12980
H1105       H  0.47240861  0.21581928  0.23787864     0.12990
C1106       C  0.48499712  0.23969497  0.19215562     0.62520
F1107       F  0.57649847  0.23450757  0.28305846    -0.22650
F1108       F  0.55503127  0.19653148  0.28994084    -0.19980
F1109       F  0.53917691  0.23419089  0.30730732    -0.19650
F1110       F  0.48759485  0.21909155  0.17445154    -0.19710
F1111       F  0.49080802  0.26310336  0.17966310    -0.20030
F1112       F  0.45870090  0.24075653  0.20012358    -0.22700
C1113       C  0.50915432  0.30000455  0.97770869    -0.05540
C1114       C  0.48306928  0.29832553  0.98773534     0.00390
C1115       C  0.47913268  0.30011002  0.01543836    -0.08180
C1116       C  0.50158689  0.29994570  0.03194712    -0.05560
C1117       C  0.52757706  0.29764146  0.02186963     0.00370
C1118       C  0.53159602  0.29938042  0.99420319    -0.08090
C1119       C  0.55908834  0.29934822  0.98181428     0.62280
H1120       H  0.51186503  0.30026751  0.95647589     0.12980
H1121       H  0.49891959  0.30010024  0.05319149     0.12990
C1122       C  0.45168107  0.30108517  0.02782981     0.62520
F1123       F  0.55806529  0.29901270  0.95446046    -0.22650
F1124       F  0.57300395  0.27742437  0.98968223    -0.19980
F1125       F  0.57257648  0.32182478  0.98936053    -0.19650
F1126       F  0.43686471  0.27954329  0.01991911    -0.19710
F1127       F  0.43916029  0.32391759  0.02032632    -0.20030
F1128       F  0.45270737  0.30100576  0.05518338    -0.22700
C1129       C  0.71538799  0.19330357  0.74238686    -0.05540
C1130       C  0.72504385  0.21485440  0.72788908     0.00390
C1131       C  0.71624063  0.21821919  0.70138499    -0.08180
C1132       C  0.69801492  0.19998381  0.69076513    -0.05560
C1133       C  0.68727718  0.17944066  0.70576926     0.00370
C1134       C  0.69605815  0.17594619  0.73208893    -0.08090
C1135       C  0.68372823  0.15530124  0.74987569     0.62280
H1136       H  0.72206631  0.19109139  0.76257558     0.12980
H1137       H  0.69067245  0.20250468  0.67083941     0.12990
C1138       C  0.72427366  0.24169947  0.68461374     0.62520
F1139       F  0.69379829  0.15650565  0.77529556    -0.22650
F1140       F  0.68885734  0.13058732  0.73977796    -0.19980
F1141       F  0.65658013  0.15899171  0.75146166    -0.19650
F1142       F  0.75019442  0.23899506  0.67612114    -0.19710
F1143       F  0.72166742  0.26474532  0.69895277    -0.20030
F1144       F  0.70856093  0.24390562  0.66233049    -0.22700
C1145       C  0.53072442  0.00947624  0.65826735    -0.05540
C1146       C  0.51878810  0.03350072  0.66439930     0.00390
C1147       C  0.49055848  0.03481023  0.66475687    -0.08180
C1148       C  0.47584278  0.01128664  0.66579247    -0.05560
C1149       C  0.48826102  0.98688735  0.66303240     0.00370
C1150       C  0.51561367  0.98637115  0.65577673    -0.08090
C1151       C  0.52975656  0.96224689  0.64516982     0.62280
H1152       H  0.55209564  0.00849988  0.65602479     0.12980
H1153       H  0.45464977  0.01206392  0.66941803     0.12990
C1154       C  0.47511186  0.06024154  0.66341642     0.62520
F1155       F  0.54424629  0.96896087  0.62290989    -0.22650
F1156       F  0.51231575  0.94251977  0.63777635    -0.19980
F1157       F  0.54704336  0.95288923  0.66405443    -0.19650
F1158       F  0.49088510  0.08129704  0.65616909    -0.19710
F1159       F  0.46340671  0.06538512  0.68764936    -0.20030
F1160       F  0.45537802  0.05781246  0.64457755    -0.22700
C1161       C  0.48127676  0.22294079  0.75100345    -0.05540
C1162       C  0.50845267  0.21881761  0.75438893     0.00390
C1163       C  0.52179331  0.22942333  0.77654033    -0.08180
C1164       C  0.50703688  0.24377442  0.79510263    -0.05560
C1165       C  0.47954294  0.24699506  0.79244450     0.00370
C1166       C  0.46629753  0.23675699  0.76988184    -0.08090
C1167       C  0.43645820  0.23890162  0.76629632     0.62280
H1168       H  0.47170987  0.21419431  0.73391933     0.12980
H1169       H  0.51663234  0.25152703  0.81264392     0.12990
C1170       C  0.55107446  0.22430277  0.78127507     0.62520
F1171       F  0.42764968  0.22445301  0.74474508    -0.22650
F1172       F  0.42968468  0.26477186  0.76213541    -0.19980
F1173       F  0.42339904  0.22960544  0.78846439    -0.19650
F1174       F  0.56591984  0.23444817  0.76068264    -0.19710
F1175       F  0.55546895  0.19758347  0.78292129    -0.20030
F1176       F  0.55987811  0.23581202  0.80453113    -0.22700
C1177       C  0.81412049  0.73201548  0.29567817    -0.05540
C1178       C  0.78672792  0.72728386  0.29717234     0.00390
C1179       C  0.77673564  0.71007883  0.31658033    -0.08180
C1180       C  0.79457724  0.69869589  0.33443454    -0.05560
C1181       C  0.82197643  0.70469473  0.33446549     0.00370
C1182       C  0.83209740  0.72114593  0.31401685    -0.08090
C1183       C  0.86137855  0.72758237  0.31121508     0.62280
H1184       H  0.82122972  0.74473829  0.28008899     0.12980
H1185       H  0.78689598  0.68541315  0.34922777     0.12990
C1186       C  0.74723151  0.70410338  0.31866291     0.62520
F1187       F  0.86615418  0.74535841  0.29113199    -0.22650
F1188       F  0.87516302  0.70494809  0.30509462    -0.19980
F1189       F  0.87090199  0.73853660  0.33440869    -0.19650
F1190       F  0.73814961  0.69385389  0.29497336    -0.19710
F1191       F  0.73349550  0.72685599  0.32447804    -0.20030
F1192       F  0.74171126  0.68611143  0.33835270    -0.22700
C1193       C  0.67273728  0.80965345  0.28550618    -0.05540
C1194       C  0.68205154  0.83042727  0.30132107     0.00390
C1195       C  0.70981788  0.83409652  0.30393264    -0.08180
C1196       C  0.72714058  0.81617947  0.29115303    -0.05560
C1197       C  0.71760695  0.79439037  0.27662156     0.00370
C1198       C  0.68967098  0.79088966  0.27421236    -0.08090
C1199       C  0.67685987  0.76721253  0.26084472     0.62280
H1200       H  0.65152723  0.80754462  0.28278189     0.12980
H1201       H  0.74840587  0.81861863  0.29303606     0.12990
C1202       C  0.72111445  0.85616339  0.32074642     0.62520
F1203       F  0.65100693  0.76347004  0.26947589    -0.22650
F1204       F  0.69048579  0.74440211  0.26638655    -0.19980
F1205       F  0.67610993  0.77129136  0.23390581    -0.19650
F1206       F  0.71049445  0.85511625  0.34597269    -0.19710
F1207       F  0.71506278  0.88001785  0.30948555    -0.20030
F1208       F  0.74844830  0.85459449  0.32283058    -0.22700
C1209       C  0.71467242  0.72492316  0.20212637    -0.05540
C1210       C  0.74178088  0.72635822  0.20876892     0.00390
C1211       C  0.75991355  0.71061011  0.19401432    -0.08180
C1212       C  0.74980245  0.69103178  0.17692630    -0.05560
C1213       C  0.72248964  0.68819584  0.17249890     0.00370
C1214       C  0.70481364  0.70646937  0.18385585    -0.08090
C1215       C  0.67539262  0.70559442  0.17753372     0.62280
H1216       H  0.70071276  0.73677533  0.21287775     0.12980
H1217       H  0.76331206  0.67717433  0.16776110     0.12990
C1218       C  0.78984445  0.71336755  0.19561447     0.62520
F1219       F  0.66199836  0.72671844  0.18848684    -0.22650
F1220       F  0.66414573  0.68280114  0.18724024    -0.19980
F1221       F  0.67201474  0.70630908  0.15041777    -0.19650
F1222       F  0.80024978  0.69193969  0.20858572    -0.19710
F1223       F  0.79767526  0.73613649  0.20844457    -0.20030
F1224       F  0.80035519  0.71412166  0.17032023    -0.22700
C1225       C  0.26706677  0.23783536  0.84387828    -0.05540
C1226       C  0.26001704  0.25253382  0.82151915     0.00390
C1227       C  0.27299989  0.27693086  0.81696350    -0.08180
C1228       C  0.29156371  0.28603367  0.83552805    -0.05560
C1229       C  0.30001968  0.27067123  0.85680905     0.00370
C1230       C  0.28745080  0.24607907  0.86127217    -0.08090
C1231       C  0.29629166  0.22792545  0.88318255     0.62280
H1232       H  0.25729032  0.21910772  0.84682776     0.12980
H1233       H  0.30129728  0.30475817  0.83239984     0.12990
C1234       C  0.26980275  0.29218815  0.79137077     0.62520
F1235       F  0.28317131  0.20400363  0.88221547    -0.22650
F1236       F  0.29096358  0.23933967  0.90744793    -0.19980
F1237       F  0.32319858  0.22307714  0.88094318    -0.19650
F1238       F  0.24506086  0.30363385  0.79029338    -0.19710
F1239       F  0.27318871  0.27550939  0.76998638    -0.20030
F1240       F  0.28847054  0.31208101  0.78905373    -0.22700
C1241       C  0.16456296  0.27156291  0.77223202    -0.05540
C1242       C  0.18656010  0.26353465  0.75699932     0.00390
C1243       C  0.19114831  0.27554080  0.73211543    -0.08180
C1244       C  0.17380225  0.29532974  0.72383316    -0.05560
C1245       C  0.15354250  0.30531351  0.74015776     0.00370
C1246       C  0.14802352  0.29249485  0.76439819    -0.08090
C1247       C  0.12560814  0.30129797  0.78238439     0.62280
H1248       H  0.16130380  0.26210088  0.79108535     0.12980
H1249       H  0.17722829  0.30472249  0.70497371     0.12990
C1250       C  0.21536951  0.26943767  0.71507024     0.62520
F1251       F  0.12454232  0.28681382  0.80544277    -0.22650
F1252       F  0.10168660  0.29802902  0.76947113    -0.19980
F1253       F  0.12896804  0.32739490  0.78929928    -0.19650
F1254       F  0.21284928  0.24485722  0.70371631    -0.19710
F1255       F  0.23814063  0.27043358  0.73017037    -0.20030
F1256       F  0.21852583  0.28732098  0.69477751    -0.22700
C1257       C  0.27415875  0.18309112  0.74757701    -0.05540
C1258       C  0.24638088  0.18449402  0.75089142     0.00390
C1259       C  0.23029012  0.16636321  0.73642373    -0.08180
C1260       C  0.24204393  0.15126075  0.71608854    -0.05560
C1261       C  0.26947621  0.15184330  0.71147668     0.00370
C1262       C  0.28595095  0.16641074  0.72871477    -0.08090
C1263       C  0.31595459  0.16451167  0.72683477     0.62280
H1264       H  0.28680510  0.19638063  0.75858270     0.12980
H1265       H  0.22956376  0.13945999  0.70320871     0.12990
C1266       C  0.20090562  0.16204916  0.74150961     0.62520
F1267       F  0.32830414  0.17728920  0.74769728    -0.22650
F1268       F  0.32489840  0.17556687  0.70356103    -0.19980
F1269       F  0.32332217  0.13839459  0.72743358    -0.19650
F1270       F  0.18640092  0.17279561  0.72111456    -0.19710
F1271       F  0.19262112  0.17277664  0.76529625    -0.20030
F1272       F  0.19561090  0.13539860  0.74245192    -0.22700
C1273       C  0.27236522  0.86090348  0.28260885    -0.05540
C1274       C  0.26576579  0.85667592  0.30918565     0.00390
C1275       C  0.24527453  0.83858300  0.31535913    -0.08180
C1276       C  0.23542501  0.82217243  0.29527354    -0.05560
C1277       C  0.24300447  0.82505595  0.26861029     0.00370
C1278       C  0.26013296  0.84645318  0.26201432    -0.08090
C1279       C  0.26574825  0.85529290  0.23393725     0.62280
H1280       H  0.28721843  0.87561725  0.27788024     0.12980
H1281       H  0.22244939  0.80618633  0.30089351     0.12990
C1282       C  0.23371367  0.83617032  0.34304724     0.62520
F1283       F  0.26412449  0.88236661  0.23265064    -0.22650
F1284       F  0.24770849  0.84520904  0.21598148    -0.19980
F1285       F  0.29111058  0.84783421  0.22666332    -0.19650
F1286       F  0.23102349  0.86073090  0.35453641    -0.19710
F1287       F  0.24988948  0.82085818  0.35856956    -0.20030
F1288       F  0.20876509  0.82466844  0.34243751    -0.22700
C1289       C  0.29445318  0.72625970  0.18072782    -0.05540
C1290       C  0.30559546  0.74261497  0.16137973     0.00390
C1291       C  0.29582106  0.76852082  0.15857306    -0.08180
C1292       C  0.27518792  0.77704032  0.17547909    -0.05560
C1293       C  0.26467212  0.76086193  0.19536906     0.00370
C1294       C  0.27455130  0.73496940  0.19819133    -0.08090
C1295       C  0.26560741  0.71697954  0.22047550     0.62280
H1296       H  0.30247130  0.70669142  0.18281929     0.12980
H1297       H  0.26755642  0.79680373  0.17386272     0.12990
C1298       C  0.30792175  0.78756288  0.13892241     0.62520
F1299       F  0.28195113  0.69533985  0.22276072    -0.22650
F1300       F  0.24020657  0.70785962  0.21576684    -0.19980
F1301       F  0.26617467  0.73032163  0.24436798    -0.19650
F1302       F  0.30346078  0.77863820  0.11347680    -0.19710
F1303       F  0.33493869  0.78984805  0.14318854    -0.20030
F1304       F  0.29699424  0.81236593  0.14118964    -0.22700
C1305       C  0.13962130  0.72833864  0.24297905    -0.05540
C1306       C  0.14854195  0.70844789  0.25989899     0.00390
C1307       C  0.17379061  0.71106241  0.27202359    -0.08180
C1308       C  0.19011396  0.73224654  0.26493832    -0.05560
C1309       C  0.18201123  0.75101869  0.24658224     0.00370
C1310       C  0.15608389  0.74979133  0.23614398    -0.08090
C1311       C  0.14647691  0.77059144  0.21724874     0.62280
H1312       H  0.12043235  0.72596310  0.23366491     0.12980
H1313       H  0.21001628  0.73353308  0.27299290     0.12990
C1314       C  0.18525390  0.69141290  0.29128982     0.62520
F1315       F  0.12032152  0.76646277  0.20998567    -0.22650
F1316       F  0.16197341  0.77040527  0.19463416    -0.19980
F1317       F  0.14833636  0.79499635  0.22924365    -0.19650
F1318       F  0.20624576  0.67849122  0.27936220    -0.19710
F1319       F  0.16695238  0.67301428  0.29974592    -0.20030
F1320       F  0.19453743  0.70460512  0.31342192    -0.22700
C1321       C  0.82892188  0.31361679  0.25183661    -0.05540
C1322       C  0.85266087  0.30698285  0.26458970     0.00390
C1323       C  0.85975859  0.28019878  0.26623593    -0.08180
C1324       C  0.84262898  0.26107796  0.25505029    -0.05560
C1325       C  0.81796630  0.26769849  0.24376574     0.00370
C1326       C  0.81068465  0.29468145  0.24289445    -0.08090
C1327       C  0.78335798  0.30440134  0.23468028     0.62280
H1328       H  0.82387691  0.33418365  0.25013566     0.12980
H1329       H  0.84808576  0.24056373  0.25569445     0.12990
C1330       C  0.88461298  0.27174793  0.28063028     0.62520
F1331       F  0.77739903  0.32801197  0.24700888    -0.22650
F1332       F  0.76360789  0.28687321  0.24179311    -0.19980
F1333       F  0.78284363  0.30849119  0.20769467    -0.19650
F1334       F  0.88436250  0.28162976  0.30616532    -0.19710
F1335       F  0.90678147  0.28102404  0.26748668    -0.20030
F1336       F  0.88652832  0.24469584  0.28206380    -0.22700
C1337       C  0.77562991  0.14812956  0.29411162    -0.05540
C1338       C  0.74923288  0.15018179  0.30295407     0.00390
C1339       C  0.73178108  0.16730792  0.28972698    -0.08180
C1340       C  0.74217889  0.18463369  0.27104248    -0.05560
C1341       C  0.76875122  0.18381654  0.26286712     0.00370
C1342       C  0.78563097  0.16442461  0.27372740    -0.08090
C1343       C  0.81388849  0.16098278  0.26395701     0.62280
H1344       H  0.78877665  0.13483283  0.30433467     0.12980
H1345       H  0.72927191  0.19952537  0.26315201     0.12990
C1346       C  0.70228827  0.16875562  0.29582668     0.62520
F1347       F  0.82549908  0.13884637  0.27454703    -0.22650
F1348       F  0.82916782  0.18245342  0.27102252    -0.19980
F1349       F  0.81399746  0.15832918  0.23672592    -0.19650
F1350       F  0.69750915  0.18920754  0.31325908    -0.19710
F1351       F  0.69290256  0.14558293  0.30657607    -0.20030
F1352       F  0.68817079  0.17317732  0.27285491    -0.22700
C1353       C  0.75112076  0.24879597  0.16117500    -0.05540
C1354       C  0.74397491  0.23795267  0.18582972     0.00390
C1355       C  0.71677507  0.23890256  0.19366458    -0.08180
C1356       C  0.69811711  0.24920348  0.17617060    -0.05560
C1357       C  0.70539793  0.26188922  0.15275108     0.00370
C1358       C  0.73238499  0.26142727  0.14477031    -0.08090
C1359       C  0.74156330  0.27499437  0.11975392     0.62280
H1360       H  0.77181205  0.24829034  0.15538223     0.12980
H1361       H  0.67730824  0.24857485  0.18151483     0.12990
C1362       C  0.70688705  0.23122978  0.22099833     0.62520
F1363       F  0.76893170  0.27481379  0.11727904    -0.22650
F1364       F  0.73335321  0.30086397  0.11999970    -0.19980
F1365       F  0.73104038  0.26228022  0.09796769    -0.19650
F1366       F  0.72363487  0.24115184  0.24025628    -0.19710
F1367       F  0.70508010  0.20424908  0.22258640    -0.20030
F1368       F  0.68188578  0.24120615  0.22631786    -0.22700
C1369       C  0.29178657  0.30197126  0.17111142    -0.05540
C1370       C  0.28867278  0.32858362  0.17756063     0.00390
C1371       C  0.27171128  0.33544128  0.19883635    -0.08180
C1372       C  0.26336121  0.31582894  0.21624881    -0.05560
C1373       C  0.26746964  0.28893317  0.21102410     0.00370
C1374       C  0.27980983  0.28200350  0.18646645    -0.08090
C1375       C  0.28043861  0.25435523  0.17518655     0.62280
H1376       H  0.30379284  0.29670703  0.15407742     0.12980
H1377       H  0.25386120  0.32213320  0.23439016     0.12990
C1378       C  0.26201426  0.36317109  0.20420694     0.62520
F1379       F  0.27395417  0.25495175  0.14862755    -0.22650
F1380       F  0.26237235  0.23787176  0.18738975    -0.19980
F1381       F  0.30571619  0.24419402  0.17762128    -0.19650
F1382       F  0.26608917  0.37970252  0.18298145    -0.19710
F1383       F  0.27474433  0.37334327  0.22619309    -0.20030
F1384       F  0.23498036  0.36258581  0.20913429    -0.22700
C1385       C  0.32060651  0.21841094  0.26480480    -0.05540
C1386       C  0.29360860  0.21234627  0.26876664     0.00390
C1387       C  0.28725949  0.18828186  0.28173723    -0.08180
C1388       C  0.30777160  0.17409044  0.29411511    -0.05560
C1389       C  0.33451475  0.18121141  0.29105669     0.00370
C1390       C  0.34095587  0.20206154  0.27368220    -0.08090
C1391       C  0.36875926  0.20755953  0.26329917     0.62280
H1392       H  0.32627042  0.23622466  0.25466361     0.12980
H1393       H  0.30282587  0.15728401  0.30624730     0.12990
C1394       C  0.25965611  0.17629741  0.28258265     0.62520
F1395       F  0.36764034  0.21267484  0.23647408    -0.22650
F1396       F  0.38558804  0.18644763  0.26641909    -0.19980
F1397       F  0.37922626  0.22931968  0.27604296    -0.19650
F1398       F  0.24271585  0.18740504  0.26439772    -0.19710
F1399       F  0.24912644  0.17913638  0.30771915    -0.20030
F1400       F  0.26115315  0.14979539  0.27662378    -0.22700
C1401       C  0.19287095  0.28083424  0.28770489    -0.05540
C1402       C  0.21806598  0.27137964  0.29515706     0.00390
C1403       C  0.22594701  0.27434817  0.32203026    -0.08180
C1404       C  0.20765032  0.28457136  0.34026157    -0.05560
C1405       C  0.18359045  0.29607971  0.33256468     0.00370
C1406       C  0.17600536  0.29424184  0.30565049    -0.08090
C1407       C  0.15099453  0.30717023  0.29553179     0.62280
H1408       H  0.18683536  0.27848334  0.26730876     0.12980
H1409       H  0.21302338  0.28494158  0.36096106     0.12990
C1410       C  0.25402134  0.26936323  0.33200153     0.62520
F1411       F  0.14962269  0.30639236  0.26819779    -0.22650
F1412       F  0.15042272  0.33323358  0.30333022    -0.19980
F1413       F  0.12896333  0.29428994  0.30539560    -0.19650
F1414       F  0.27281125  0.27640129  0.31332475    -0.19710
F1415       F  0.25688969  0.24324254  0.33854310    -0.20030
F1416       F  0.25935257  0.28415934  0.35445599    -0.22700
loop_ 
_geom_bond_atom_site_label_1 
_geom_bond_atom_site_label_2 
_geom_bond_distance 
_geom_bond_site_symmetry_2 
_ccdc_geom_bond_type 
C1            C2   1.411       .  A
C1            C6   1.410       .  A
C1         C1373   1.512       .  S
C2            C3   1.405       .  A
C2            H7   1.081       .  S
C3            C4   1.405       .  A
C3         C1402   1.503       .  S
C4            C5   1.407       .  A
C4            H8   1.075       .  S
C5            C6   1.414       .  A
C5         C1386   1.508       .  S
C6            H9   1.078       .  S
C10          C11   1.408       .  A
C10          C15   1.410       .  A
C10        C1325   1.502       .  S
C11          C12   1.406       .  A
C11          H16   1.078       .  S
C12          C13   1.406       .  A
C12        C1354   1.504       .  S
C13          C14   1.409       .  A
C13          H17   1.080       .  S
C14          C15   1.407       .  A
C14        C1341   1.494       .  S
C15          H18   1.083       .  S
C19          C20   1.399       .  A
C19          C24   1.401       .  A
C19        C1309   1.482       .  S
C20          C21   1.400       .  A
C20          H25   1.082       .  S
C21          C22   1.408       .  A
C21        C1293   1.490       .  S
C22          C23   1.413       .  A
C22          H26   1.082       .  S
C23          C24   1.414       .  A
C23        C1277   1.507       .  S
C24          H27   1.082       .  S
C28          C29   1.405       .  A
C28          C33   1.406       .  A
C28        C1242   1.494       .  S
C29          C30   1.403       .  A
C29          H34   1.082       .  S
C30          C31   1.406       .  A
C30        C1226   1.495       .  S
C31          C32   1.412       .  A
C31          H35   1.083       .  S
C32          C33   1.412       .  A
C32        C1258   1.506       .  S
C33          H36   1.078       .  S
C37          C38   1.410       .  A
C37          C42   1.407       .  A
C37        C1197   1.500       .  S
C38          C39   1.414       .  A
C38          H43   1.081       .  S
C39          C40   1.410       .  A
C39        C1210   1.505       .  S
C40          C41   1.402       .  A
C40          H44   1.082       .  S
C41          C42   1.404       .  A
C41        C1178   1.486       .  S
C42          H45   1.084       .  S
N46          N47   1.323       .  A
N46          C50   1.355       .  A
N46         Cu54   2.113       .  S
N47          C48   1.338       .  A
N47         Cu53   2.050       .  S
C48          C49   1.375       .  A
C48          H51   1.082       .  S
C49          C50   1.395       .  A
C49        C1133   1.487       .  S
C50          H52   1.081       .  S
Cu53         N56   2.052       .  S
Cu54         N64   2.112       .  S
Cu55         N57   2.043       .  S
Cu55         N63   2.039       .  S
N56          N57   1.319       .  A
N56          C60   1.343       .  A
N57          C58   1.338       .  A
C58          C59   1.377       .  A
C58          H61   1.082       .  S
C59          C60   1.380       .  A
C59        C1162   1.460       .  S
C60          H62   1.082       .  S
N63          N64   1.321       .  A
N63          C67   1.337       .  A
N64          C65   1.354       .  A
C65          C66   1.398       .  A
C65          H68   1.082       .  S
C66          C67   1.378       .  A
C66        C1146   1.490       .  S
C67          H69   1.080       .  S
N70          N71   1.321       .  A
N70          C74   1.355       .  A
N70         Cu78   2.100       .  S
N71          C72   1.335       .  A
N71         Cu77   2.050       .  S
C72          C73   1.380       .  A
C72          H75   1.082       .  S
C73          C74   1.397       .  A
C73        C1229   1.493       .  S
C74          H76   1.079       .  S
Cu77         N80   2.049       .  S
Cu78         N88   2.100       .  S
Cu79         N81   2.050       .  S
Cu79         N87   2.047       .  S
N80          N81   1.318       .  A
N80          C84   1.343       .  A
N81          C82   1.338       .  A
C82          C83   1.382       .  A
C82          H85   1.082       .  S
C83          C84   1.383       .  A
C83        C1165   1.471       .  S
C84          H86   1.079       .  S
N87          N88   1.320       .  A
N87          C91   1.336       .  A
N88          C89   1.352       .  A
C89          C90   1.398       .  A
C89          H92   1.078       .  S
C90          C91   1.381       .  A
C90        C1114   1.495       .  S
C91          H93   1.082       .  S
N94          N95   1.324       .  A
N94          C98   1.355       .  A
N94        Cu102   2.113       .  S
N95          C96   1.339       .  A
N95        Cu101   2.062       .  S
C96          C97   1.379       .  A
C96          H99   1.081       .  S
C97          C98   1.393       .  A
C97        C1389   1.489       .  S
C98         H100   1.082       .  S
Cu101       N104   2.068       .  S
Cu102       N112   2.110       .  S
Cu103       N105   2.039       .  S
Cu103       N111   2.036       .  S
N104        N105   1.318       .  A
N104        C108   1.346       .  A
N105        C106   1.338       .  A
C106        C107   1.377       .  A
C106        H109   1.082       .  S
C107        C108   1.385       .  A
C107       C1101   1.466       .  S
C108        H110   1.082       .  S
N111        N112   1.318       .  A
N111        C115   1.333       .  A
N112        C113   1.355       .  A
C113        C114   1.402       .  A
C113        H116   1.078       .  S
C114        C115   1.381       .  A
C114       C1082   1.499       .  S
C115        H117   1.082       .  S
N118        N119   1.321       .  A
N118        C122   1.353       .  A
N118       Cu126   2.091       .  S
N119        C120   1.337       .  A
N119       Cu125   2.070       .  S
C120        C121   1.386       .  A
C120        H123   1.082       .  S
C121        C122   1.394       .  A
C121       C1357   1.495       .  S
C122        H124   1.080       .  S
Cu125       N128   2.075       .  S
Cu126       N136   2.090       .  S
Cu127       N129   2.050       .  S
Cu127       N135   2.047       .  S
N128        N129   1.319       .  A
N128        C132   1.345       .  A
N129        C130   1.340       .  A
C130        C131   1.383       .  A
C130        H133   1.079       .  S
C131        C132   1.388       .  A
C131       C1098   1.480       .  S
C132        H134   1.082       .  S
N135        N136   1.319       .  A
N135        C139   1.337       .  A
N136        C137   1.351       .  A
C137        C138   1.396       .  A
C137        H140   1.078       .  S
C138        C139   1.382       .  A
C138       C1117   1.492       .  S
C139        H141   1.082       .  S
N142        N143   1.324       .  A
N142        C146   1.358       .  A
N142       Cu150   2.130       .  S
N143        C144   1.337       .  A
N143       Cu149   2.059       .  S
C144        C145   1.378       .  A
C144        H147   1.080       .  S
C145        C146   1.397       .  A
C145       C1050   1.496       .  S
C146        H148   1.082       .  S
Cu149       N152   2.067       .  S
Cu150       N160   2.128       .  S
Cu151       N153   2.025       .  S
Cu151       N159   2.023       .  S
N152        N153   1.314       .  A
N152        C156   1.344       .  A
N153        C154   1.336       .  A
C154        C155   1.382       .  A
C154        H157   1.074       .  S
C155        C156   1.392       .  A
C155       C1066   1.485       .  S
C156        H158   1.082       .  S
N159        N160   1.320       .  A
N159        C163   1.332       .  A
N160        C161   1.358       .  A
C161        C162   1.402       .  A
C161        H164   1.082       .  S
C162        C163   1.373       .  A
C162       C1149   1.490       .  S
C163        H165   1.080       .  S
N166        N167   1.322       .  A
N166        C170   1.355       .  A
N166       Cu174   2.110       .  S
N167        C168   1.337       .  A
N167       Cu173   2.060       .  S
C168        C169   1.383       .  A
C168        H171   1.082       .  S
C169        C170   1.398       .  A
C169       C1021   1.500       .  S
C170        H172   1.079       .  S
Cu173       N176   2.065       .  S
Cu174       N184   2.107       .  S
Cu175       N177   2.037       .  S
Cu175       N183   2.030       .  S
N176        N177   1.318       .  A
N176        C180   1.345       .  A
N177        C178   1.336       .  A
C178        C179   1.380       .  A
C178        H181   1.082       .  S
C179        C180   1.387       .  A
C179       C1069   1.472       .  S
C180        H182   1.081       .  S
N183        N184   1.318       .  A
N183        C187   1.333       .  A
N184        C185   1.354       .  A
C185        C186   1.401       .  A
C185        H188   1.078       .  S
C186        C187   1.379       .  A
C186       C1034   1.496       .  S
C187        H189   1.082       .  S
N190        N191   1.322       .  A
N190        C194   1.354       .  A
N190       Cu198   2.101       .  S
N191        C192   1.337       .  A
N191       Cu197   2.050       .  S
C192        C193   1.377       .  A
C192        H195   1.082       .  S
C193        C194   1.394       .  A
C193       C1290   1.487       .  S
C194        H196   1.080       .  S
Cu197       N200   2.051       .  S
Cu198       N208   2.101       .  S
Cu199       N201   2.051       .  S
Cu199       N207   2.046       .  S
N200        N201   1.319       .  A
N200        C204   1.342       .  A
N201        C202   1.340       .  A
C202        C203   1.381       .  A
C202        H205   1.081       .  S
C203        C204   1.382       .  A
C203       C1005   1.467       .  S
C204        H206   1.082       .  S
N207        N208   1.320       .  A
N207        C211   1.336       .  A
N208        C209   1.353       .  A
C209        C210   1.398       .  A
C209        H212   1.078       .  S
C210        C211   1.380       .  A
C210       C1037   1.494       .  S
C211        H213   1.082       .  S
N214        N215   1.322       .  A
N214        C218   1.355       .  A
N214       Cu222   2.109       .  S
N215        C216   1.337       .  A
N215       Cu221   2.062       .  S
C216        C217   1.383       .  A
C216        H219   1.082       .  S
C217        C218   1.397       .  A
C217       C1194   1.496       .  S
C218        H220   1.080       .  S
Cu221       N224   2.067       .  S
Cu222       N232   2.107       .  S
Cu223       N225   2.038       .  S
Cu223       N231   2.034       .  S
N224        N225   1.319       .  A
N224        C228   1.345       .  A
N225        C226   1.337       .  A
C226        C227   1.377       .  A
C226        H229   1.082       .  S
C227        C228   1.385       .  A
C227       C1002   1.465       .  S
C228        H230   1.082       .  S
N231        N232   1.318       .  A
N231        C235   1.335       .  A
N232        C233   1.353       .  A
C233        C234   1.401       .  A
C233        H236   1.077       .  S
C234        C235   1.381       .  A
C234       C1085   1.497       .  S
C235        H237   1.082       .  S
C238        C239   1.406       .  A
C238        C243   1.403       .  A
C238        C989   1.488       .  S
C239        C240   1.409       .  A
C239        H244   1.083       .  S
C240        C241   1.409       .  A
C240       C1018   1.496       .  S
C241        C242   1.405       .  A
C241        H245   1.078       .  S
C242        C243   1.404       .  A
C242        C973   1.490       .  S
C243        H246   1.085       .  S
C247        C248   1.403       .  A
C247        C252   1.407       .  A
C247        C941   1.493       .  S
C248        C249   1.407       .  A
C248        H253   1.081       .  S
C249        C250   1.406       .  A
C249       C1130   1.498       .  S
C250        C251   1.411       .  A
C250        H254   1.079       .  S
C251        C252   1.406       .  A
C251        C954   1.503       .  S
C252        H255   1.078       .  S
N256        N257   1.325       .  A
N256        C260   1.358       .  A
N256       Cu264   2.129       .  S
N257        C258   1.337       .  A
N257       Cu263   2.055       .  S
C258        C259   1.376       .  A
C258        H261   1.081       .  S
C259        C260   1.396       .  A
C259        C890   1.489       .  S
C260        H262   1.082       .  S
Cu263       N266   2.061       .  S
Cu264       N274   2.127       .  S
Cu265       N267   2.027       .  S
Cu265       N273   2.027       .  S
N266        N267   1.315       .  A
N266        C270   1.344       .  A
N267        C268   1.337       .  A
C268        C269   1.380       .  A
C268        H271   1.078       .  S
C269        C270   1.388       .  A
C269        C922   1.476       .  S
C270        H272   1.082       .  S
N273        N274   1.321       .  A
N273        C277   1.333       .  A
N274        C275   1.357       .  A
C275        C276   1.402       .  A
C275        H278   1.082       .  S
C276        C277   1.374       .  A
C276        C906   1.491       .  S
C277        H279   1.080       .  S
N280        N281   1.324       .  A
N280        C284   1.355       .  A
N280       Cu288   2.114       .  S
N281        C282   1.339       .  A
N281       Cu287   2.059       .  S
C282        C283   1.376       .  A
C282        H285   1.081       .  S
C283        C284   1.393       .  A
C283       C1274   1.485       .  S
C284        H286   1.082       .  S
Cu287       N290   2.065       .  S
Cu288       N298   2.111       .  S
Cu289       N291   2.036       .  S
Cu289       N297   2.030       .  S
N290        N291   1.318       .  A
N290        C294   1.345       .  A
N291        C292   1.336       .  A
C292        C293   1.380       .  A
C292        H295   1.082       .  S
C293        C294   1.388       .  A
C293        C925   1.475       .  S
C294        H296   1.080       .  S
N297        N298   1.320       .  A
N297        C301   1.335       .  A
N298        C299   1.355       .  A
C299        C300   1.397       .  A
C299        H302   1.082       .  S
C300        C301   1.375       .  A
C300        C874   1.485       .  S
C301        H303   1.081       .  S
N304        N305   1.318       .  A
N304        C308   1.355       .  A
N304       Cu312   2.109       .  S
N305        C306   1.336       .  A
N305       Cu311   2.047       .  S
C306        C307   1.385       .  A
C306        H309   1.082       .  S
C307        C308   1.404       .  A
C307       C1181   1.508       .  S
C308        H310   1.076       .  S
Cu311       N314   2.046       .  S
Cu312       N322   2.112       .  S
Cu313       N315   2.056       .  S
Cu313       N321   2.055       .  S
N314        N315   1.319       .  A
N314        C318   1.339       .  A
N315        C316   1.344       .  A
C316        C317   1.382       .  A
C316        H319   1.082       .  S
C317        C318   1.378       .  A
C317        C858   1.467       .  S
C318        H320   1.081       .  S
N321        N322   1.324       .  A
N321        C325   1.338       .  A
N322        C323   1.354       .  A
C323        C324   1.394       .  A
C323        H326   1.082       .  S
C324        C325   1.378       .  A
C324        C909   1.488       .  S
C325        H327   1.081       .  S
N328        N329   1.325       .  A
N328        C332   1.354       .  A
N328       Cu336   2.115       .  S
N329        C330   1.338       .  A
N329       Cu335   2.060       .  S
C330        C331   1.378       .  A
C330        H333   1.081       .  S
C331        C332   1.391       .  A
C331        C970   1.486       .  S
C332        H334   1.082       .  S
Cu335       N338   2.062       .  S
Cu336       N346   2.113       .  S
Cu337       N339   2.034       .  S
Cu337       N345   2.033       .  S
N338        N339   1.313       .  A
N338        C342   1.346       .  A
N339        C340   1.337       .  A
C340        C341   1.388       .  A
C340        H343   1.082       .  S
C341        C342   1.394       .  A
C341        C861   1.495       .  S
C342        H344   1.074       .  S
N345        N346   1.323       .  A
N345        C349   1.337       .  A
N346        C347   1.353       .  A
C347        C348   1.391       .  A
C347        H350   1.082       .  S
C348        C349   1.371       .  A
C348        C845   1.473       .  S
C349        H351   1.082       .  S
N352        N353   1.323       .  A
N352        C356   1.356       .  A
N352       Cu360   2.118       .  S
N353        C354   1.334       .  A
N353       Cu359   2.056       .  S
C354        C355   1.382       .  A
C354        H357   1.082       .  S
C355        C356   1.399       .  A
C355       C1405   1.499       .  S
C356        H358   1.079       .  S
Cu359       N362   2.063       .  S
Cu360       N370   2.116       .  S
Cu361       N363   2.021       .  S
Cu361       N369   2.022       .  S
N362        N363   1.315       .  A
N362        C366   1.345       .  A
N363        C364   1.336       .  A
C364        C365   1.378       .  A
C364        H367   1.079       .  S
C365        C366   1.387       .  A
C365        C829   1.472       .  S
C366        H368   1.082       .  S
N369        N370   1.316       .  A
N369        C373   1.329       .  A
N370        C371   1.354       .  A
C371        C372   1.411       .  A
C371        H374   1.074       .  S
C372        C373   1.385       .  A
C372        C813   1.514       .  S
C373        H375   1.079       .  S
N376        N377   1.323       .  A
N376        C380   1.355       .  A
N376       Cu384   2.113       .  S
N377        C378   1.337       .  A
N377       Cu383   2.051       .  S
C378        C379   1.374       .  A
C378        H381   1.082       .  S
C379        C380   1.393       .  A
C379       C1261   1.480       .  S
C380        H382   1.082       .  S
Cu383       N386   2.052       .  S
Cu384       N394   2.112       .  S
Cu385       N387   2.043       .  S
Cu385       N393   2.035       .  S
N386        N387   1.317       .  A
N386        C390   1.343       .  A
N387        C388   1.337       .  A
C388        C389   1.383       .  A
C388        H391   1.082       .  S
C389        C390   1.385       .  A
C389        C826   1.473       .  S
C390        H392   1.080       .  S
N393        N394   1.321       .  A
N393        C397   1.336       .  A
N394        C395   1.354       .  A
C395        C396   1.397       .  A
C395        H398   1.082       .  S
C396        C397   1.376       .  A
C396        C877   1.488       .  S
C397        H399   1.080       .  S
N400        N401   1.324       .  A
N400        C404   1.357       .  A
N400       Cu408   2.115       .  S
N401        C402   1.334       .  A
N401       Cu407   2.047       .  S
C402        C403   1.373       .  A
C402        H405   1.082       .  S
C403        C404   1.394       .  A
C403       C1338   1.482       .  S
C404        H406   1.081       .  S
Cu407       N410   2.046       .  S
Cu408       N418   2.115       .  S
Cu409       N411   2.029       .  S
Cu409       N417   2.027       .  S
N410        N411   1.315       .  A
N410        C414   1.342       .  A
N411        C412   1.337       .  A
C412        C413   1.380       .  A
C412        H415   1.082       .  S
C413        C414   1.383       .  A
C413        C794   1.465       .  S
C414        H416   1.081       .  S
N417        N418   1.323       .  A
N417        C421   1.334       .  A
N418        C419   1.354       .  A
C419        C420   1.393       .  A
C419        H422   1.082       .  S
C420        C421   1.368       .  A
C420        C842   1.473       .  S
C421        H423   1.082       .  S
N424        N425   1.324       .  A
N424        C428   1.357       .  A
N424       Cu432   2.119       .  S
N425        C426   1.335       .  A
N425       Cu431   2.043       .  S
C426        C427   1.371       .  A
C426        H429   1.082       .  S
C427        C428   1.394       .  A
C427        C957   1.479       .  S
C428        H430   1.081       .  S
Cu431       N434   2.043       .  S
Cu432       N442   2.119       .  S
Cu433       N435   2.029       .  S
Cu433       N441   2.030       .  S
N434        N435   1.314       .  A
N434        C438   1.340       .  A
N435        C436   1.339       .  A
C436        C437   1.380       .  A
C436        H439   1.080       .  S
C437        C438   1.382       .  A
C437        C797   1.466       .  S
C438        H440   1.082       .  S
N441        N442   1.318       .  A
N441        C445   1.331       .  A
N442        C443   1.353       .  A
C443        C444   1.409       .  A
C443        H446   1.074       .  S
C444        C445   1.384       .  A
C444        C810   1.512       .  S
C445        H447   1.080       .  S
C448        C449   1.411       .  A
C448        C453   1.410       .  A
C448       C1053   1.511       .  S
C449        C450   1.418       .  A
C449        H454   1.078       .  S
C450        C451   1.410       .  A
C450        C893   1.514       .  S
C451        C452   1.404       .  A
C451        H455   1.076       .  S
C452        C453   1.402       .  A
C452        C778   1.497       .  S
C453        H456   1.083       .  S
N457        N458   1.324       .  A
N457        C461   1.356       .  A
N457       Cu465   2.118       .  S
N458        C459   1.337       .  A
N458       Cu464   2.045       .  S
C459        C460   1.372       .  A
C459        H462   1.082       .  S
C460        C461   1.392       .  A
C460       C1213   1.477       .  S
C461        H463   1.082       .  S
Cu464       N467   2.044       .  S
Cu465       N475   2.119       .  S
Cu466       N468   2.045       .  S
Cu466       N474   2.047       .  S
N467        N468   1.317       .  A
N467        C471   1.341       .  A
N468        C469   1.342       .  A
C469        C470   1.381       .  A
C469        H472   1.082       .  S
C470        C471   1.379       .  A
C470        C762   1.466       .  S
C471        H473   1.082       .  S
N474        N475   1.325       .  A
N474        C478   1.339       .  A
N475        C476   1.353       .  A
C476        C477   1.391       .  A
C476        H479   1.082       .  S
C477        C478   1.371       .  A
C477        C749   1.476       .  S
C478        H480   1.082       .  S
N481        N482   1.321       .  A
N481        C485   1.356       .  A
N481       Cu489   2.111       .  S
N482        C483   1.336       .  A
N482       Cu488   2.050       .  S
C483        C484   1.381       .  A
C483        H486   1.082       .  S
C484        C485   1.398       .  A
C484       C1322   1.495       .  S
C485        H487   1.080       .  S
Cu488       N491   2.059       .  S
Cu489       N499   2.112       .  S
Cu490       N492   2.048       .  S
Cu490       N498   2.044       .  S
N491        N492   1.317       .  A
N491        C495   1.342       .  A
N492        C493   1.339       .  A
C493        C494   1.387       .  A
C493        H496   1.082       .  S
C494        C495   1.388       .  A
C494        C765   1.486       .  S
C495        H497   1.076       .  S
N498        N499   1.319       .  A
N498        C502   1.336       .  A
N499        C500   1.353       .  A
C500        C501   1.404       .  A
C500        H503   1.076       .  S
C501        C502   1.385       .  A
C501        C730   1.507       .  S
C502        H504   1.081       .  S
N505        N506   1.324       .  A
N505        C509   1.356       .  A
N505       Cu513   2.117       .  S
N506        C507   1.337       .  A
N506       Cu512   2.057       .  S
C507        C508   1.378       .  A
C507        H510   1.082       .  S
C508        C509   1.393       .  A
C508       C1370   1.485       .  S
C509        H511   1.082       .  S
Cu512       N515   2.060       .  S
Cu513       N523   2.117       .  S
Cu514       N516   2.040       .  S
Cu514       N522   2.042       .  S
N515        N516   1.316       .  A
N515        C519   1.345       .  A
N516        C517   1.340       .  A
C517        C518   1.381       .  A
C517        H520   1.082       .  S
C518        C519   1.386       .  A
C518        C717   1.474       .  S
C519        H521   1.082       .  S
N522        N523   1.323       .  A
N522        C526   1.338       .  A
N523        C524   1.352       .  A
C524        C525   1.396       .  A
C524        H527   1.079       .  S
C525        C526   1.375       .  A
C525        C701   1.487       .  S
C526        H528   1.082       .  S
N529        N530   1.324       .  A
N529        C533   1.355       .  A
N529       Cu537   2.110       .  S
N530        C531   1.339       .  A
N530       Cu536   2.056       .  S
C531        C532   1.375       .  A
C531        H534   1.082       .  S
C532        C533   1.392       .  A
C532       C1306   1.479       .  S
C533        H535   1.082       .  S
Cu536       N539   2.057       .  S
Cu537       N547   2.111       .  S
Cu538       N540   2.048       .  S
Cu538       N546   2.047       .  S
N539        N540   1.318       .  A
N539        C543   1.342       .  A
N540        C541   1.343       .  A
C541        C542   1.381       .  A
C541        H544   1.081       .  S
C542        C543   1.382       .  A
C542        C714   1.469       .  S
C543        H545   1.082       .  S
N546        N547   1.317       .  A
N546        C550   1.335       .  A
N547        C548   1.351       .  A
C548        C549   1.410       .  A
C548        H551   1.072       .  S
C549        C550   1.392       .  A
C549        C733   1.523       .  S
C550        H552   1.078       .  S
N553        N554   1.321       .  A
N553        C557   1.359       .  A
N553       Cu561   2.124       .  S
N554        C555   1.332       .  A
N554       Cu560   2.031       .  S
C555        C556   1.373       .  A
C555        H558   1.082       .  S
C556        C557   1.400       .  A
C556        C938   1.488       .  S
C557        H559   1.081       .  S
Cu560       N563   2.031       .  S
Cu561       N571   2.127       .  S
Cu562       N564   2.048       .  S
Cu562       N570   2.050       .  S
N563        N564   1.314       .  A
N563        C567   1.336       .  A
N564        C565   1.344       .  A
C565        C566   1.386       .  A
C565        H568   1.079       .  S
C566        C567   1.380       .  A
C566        C682   1.472       .  S
C567        H569   1.082       .  S
N570        N571   1.327       .  A
N570        C574   1.338       .  A
N571        C572   1.354       .  A
C572        C573   1.392       .  A
C572        H575   1.082       .  S
C573        C574   1.371       .  A
C573        C746   1.477       .  S
C574        H576   1.082       .  S
N577        N578   1.324       .  A
N577        C581   1.356       .  A
N577       Cu585   2.114       .  S
N578        C579   1.336       .  A
N578       Cu584   2.049       .  S
C579        C580   1.376       .  A
C579        H582   1.082       .  S
C580        C581   1.394       .  A
C580        C986   1.484       .  S
C581        H583   1.082       .  S
Cu584       N587   2.049       .  S
Cu585       N595   2.114       .  S
Cu586       N588   2.032       .  S
Cu586       N594   2.031       .  S
N587        N588   1.317       .  A
N587        C591   1.342       .  A
N588        C589   1.338       .  A
C589        C590   1.378       .  A
C589        H592   1.082       .  S
C590        C591   1.381       .  A
C590        C685   1.461       .  S
C591        H593   1.082       .  S
N594        N595   1.323       .  A
N594        C598   1.336       .  A
N595        C596   1.354       .  A
C596        C597   1.393       .  A
C596        H599   1.082       .  S
C597        C598   1.369       .  A
C597        C666   1.473       .  S
C598        H600   1.082       .  S
N601        N602   1.323       .  A
N601        C605   1.359       .  A
N601       Cu609   2.126       .  S
N602        C603   1.333       .  A
N602       Cu608   2.046       .  S
C603        C604   1.377       .  A
C603        H606   1.082       .  S
C604        C605   1.401       .  A
C604       C1245   1.497       .  S
C605        H607   1.079       .  S
Cu608       N611   2.043       .  S
Cu609       N619   2.127       .  S
Cu610       N612   2.037       .  S
Cu610       N618   2.036       .  S
N611        N612   1.313       .  A
N611        C615   1.340       .  A
N612        C613   1.341       .  A
C613        C614   1.384       .  A
C613        H616   1.082       .  S
C614        C615   1.385       .  A
C614        C650   1.478       .  S
C615        H617   1.079       .  S
N618        N619   1.325       .  A
N618        C622   1.336       .  A
N619        C620   1.355       .  A
C620        C621   1.394       .  A
C620        H623   1.082       .  S
C621        C622   1.368       .  A
C621        C669   1.475       .  S
C622        H624   1.082       .  S
N625        N626   1.324       .  A
N625        C629   1.356       .  A
N625       Cu633   2.125       .  S
N626        C627   1.336       .  A
N626       Cu632   2.061       .  S
C627        C628   1.383       .  A
C627        H630   1.082       .  S
C628        C629   1.400       .  A
C628        C781   1.503       .  S
C629        H631   1.078       .  S
Cu632       N635   2.065       .  S
Cu633       N643   2.122       .  S
Cu634       N636   2.022       .  S
Cu634       N642   2.023       .  S
N635        N636   1.314       .  A
N635        C639   1.346       .  A
N636        C637   1.335       .  A
C637        C638   1.382       .  A
C637        H640   1.082       .  S
C638        C639   1.391       .  A
C638        C653   1.482       .  S
C639        H641   1.077       .  S
N642        N643   1.320       .  A
N642        C646   1.334       .  A
N643        C644   1.356       .  A
C644        C645   1.398       .  A
C644        H647   1.081       .  S
C645        C646   1.372       .  A
C645        C698   1.482       .  S
C646        H648   1.082       .  S
C649        C650   1.403       .  A
C649        C654   1.406       .  A
C649        H656   1.083       .  S
C650        C651   1.417       .  A
C651        C652   1.398       .  A
C651        C658   1.522       .  S
C652        C653   1.405       .  A
C652        H657   1.084       .  S
C653        C654   1.421       .  A
C654        C655   1.519       .  S
C655        F659   1.385       .  S
C655        F660   1.380       .  S
C655        F661   1.384       .  S
C658        F662   1.382       .  S
C658        F663   1.383       .  S
C658        F664   1.386       .  S
C665        C666   1.399   1_455  A
C665        C670   1.405       .  A
C665        H672   1.083       .  S
C666        C667   1.416       .  A
C667        C668   1.409   1_655  A
C667        C674   1.517       .  S
C668        C669   1.402       .  A
C668        H673   1.083       .  S
C669        C670   1.417       .  A
C670        C671   1.518       .  S
C671        F675   1.385       .  S
C671        F676   1.382       .  S
C671        F677   1.383       .  S
C674        F678   1.383       .  S
C674        F679   1.383       .  S
C674        F680   1.385       .  S
C681        C682   1.405       .  A
C681        C686   1.400       .  A
C681        H688   1.083       .  S
C682        C683   1.421       .  A
C683        C684   1.402       .  A
C683        C690   1.521       .  S
C684        C685   1.399       .  A
C684        H689   1.084       .  S
C685        C686   1.408       .  A
C686        C687   1.518       .  S
C687        F691   1.384       .  S
C687        F692   1.384       .  S
C687        F693   1.382       .  S
C690        F694   1.383       .  S
C690        F695   1.380       .  S
C690        F696   1.385       .  S
C697        C698   1.405       .  A
C697        C702   1.407   1_556  A
C697        H704   1.083       .  S
C698        C699   1.413   1_556  A
C699        C700   1.409       .  A
C699        C706   1.517   1_554  S
C700        C701   1.409       .  A
C700        H705   1.083       .  S
C701        C702   1.418       .  A
C702        C703   1.519       .  S
C703        F707   1.385   1_554  S
C703        F708   1.383       .  S
C703        F709   1.381       .  S
C706        F710   1.382   1_556  S
C706        F711   1.383       .  S
C706        F712   1.385   1_556  S
C713        C714   1.400       .  A
C713        C718   1.402       .  A
C713        H720   1.083       .  S
C714        C715   1.414       .  A
C715        C716   1.406       .  A
C715        C722   1.519       .  S
C716        C717   1.405       .  A
C716        H721   1.083       .  S
C717        C718   1.414       .  A
C718        C719   1.518       .  S
C719        F723   1.384       .  S
C719        F724   1.381       .  S
C719        F725   1.383       .  S
C722        F726   1.384       .  S
C722        F727   1.382       .  S
C722        F728   1.384       .  S
C729        C730   1.410       .  A
C729        C734   1.412   1_655  A
C729        H736   1.079       .  S
C730        C731   1.417   1_655  A
C731        C732   1.410       .  A
C731        C738   1.520       .  S
C732        C733   1.417       .  A
C732        H737   1.075       .  S
C733        C734   1.427       .  A
C734        C735   1.518   1_455  S
C735        F739   1.385       .  S
C735        F740   1.383       .  S
C735        F741   1.383       .  S
C738        F742   1.383       .  S
C738        F743   1.382       .  S
C738        F744   1.385       .  S
C745        C746   1.402       .  A
C745        C750   1.409   1_556  A
C745        H752   1.083       .  S
C746        C747   1.416       .  A
C747        C748   1.407   1_556  A
C747        C754   1.518       .  S
C748        C749   1.402       .  A
C748        H753   1.083       .  S
C749        C750   1.416       .  A
C750        C751   1.517       .  S
C751        F755   1.384       .  S
C751        F756   1.383       .  S
C751        F757   1.383       .  S
C754        F758   1.383       .  S
C754        F759   1.382       .  S
C754        F760   1.384   1_556  S
C761        C762   1.396       .  A
C761        C766   1.405       .  A
C761        H768   1.083       .  S
C762        C763   1.413       .  A
C763        C764   1.401       .  A
C763        C770   1.522       .  S
C764        C765   1.408       .  A
C764        H769   1.082       .  S
C765        C766   1.424       .  A
C766        C767   1.519       .  S
C767        F771   1.385       .  S
C767        F772   1.383       .  S
C767        F773   1.381       .  S
C770        F774   1.383       .  S
C770        F775   1.381       .  S
C770        F776   1.385       .  S
C777        C778   1.409       .  A
C777        C782   1.416       .  A
C777        H784   1.083       .  S
C778        C779   1.420       .  A
C779        C780   1.404       .  A
C779        C786   1.525       .  S
C780        C781   1.409       .  A
C780        H785   1.082       .  S
C781        C782   1.421       .  A
C782        C783   1.517       .  S
C783        F787   1.385       .  S
C783        F788   1.383       .  S
C783        F789   1.381       .  S
C786        F790   1.384       .  S
C786        F791   1.381       .  S
C786        F792   1.385       .  S
C793        C794   1.401       .  A
C793        C798   1.399       .  A
C793        H800   1.084       .  S
C794        C795   1.411       .  A
C795        C796   1.402       .  A
C795        C802   1.517       .  S
C796        C797   1.402       .  A
C796        H801   1.083       .  S
C797        C798   1.420       .  A
C798        C799   1.523       .  S
C799        F803   1.385       .  S
C799        F804   1.383       .  S
C799        F805   1.381       .  S
C802        F806   1.384       .  S
C802        F807   1.381       .  S
C802        F808   1.384       .  S
C809        C810   1.415       .  A
C809        C814   1.410   1_655  A
C809        H816   1.077       .  S
C810        C811   1.419   1_655  A
C811        C812   1.408       .  A
C811        C818   1.519       .  S
C812        C813   1.415       .  A
C812        H817   1.075       .  S
C813        C814   1.420       .  A
C814        C815   1.518   1_455  S
C815        F819   1.385       .  S
C815        F820   1.383   1_655  S
C815        F821   1.382   1_655  S
C818        F822   1.383       .  S
C818        F823   1.382       .  S
C818        F824   1.385       .  S
C825        C826   1.401       .  A
C825        C830   1.396       .  A
C825        H832   1.084       .  S
C826        C827   1.416       .  A
C827        C828   1.406       .  A
C827        C834   1.517       .  S
C828        C829   1.402       .  A
C828        H833   1.083       .  S
C829        C830   1.420       .  A
C830        C831   1.522       .  S
C831        F835   1.386       .  S
C831        F836   1.383       .  S
C831        F837   1.382       .  S
C834        F838   1.383       .  S
C834        F839   1.380       .  S
C834        F840   1.385       .  S
C841        C842   1.400       .  A
C841        C846   1.406   1_545  A
C841        H848   1.083       .  S
C842        C843   1.419       .  A
C843        C844   1.407       .  A
C843        C850   1.520       .  S
C844        C845   1.400   1_545  A
C844        H849   1.083   1_545  S
C845        C846   1.416       .  A
C846        C847   1.517       .  S
C847        F851   1.384       .  S
C847        F852   1.382       .  S
C847        F853   1.383       .  S
C850        F854   1.383       .  S
C850        F855   1.381       .  S
C850        F856   1.385       .  S
C857        C858   1.397       .  A
C857        C862   1.409       .  A
C857        H864   1.083       .  S
C858        C859   1.409       .  A
C859        C860   1.400       .  A
C859        C866   1.522       .  S
C860        C861   1.410       .  A
C860        H865   1.081       .  S
C861        C862   1.429       .  A
C862        C863   1.519       .  S
C863        F867   1.385       .  S
C863        F868   1.381       .  S
C863        F869   1.383       .  S
C866        F870   1.381       .  S
C866        F871   1.384       .  S
C866        F872   1.385       .  S
C873        C874   1.399   1_545  A
C873        C878   1.406       .  A
C873        H880   1.084       .  S
C874        C875   1.423       .  A
C875        C876   1.405   1_565  A
C875        C882   1.517       .  S
C876        C877   1.400       .  A
C876        H881   1.084   1_545  S
C877        C878   1.425       .  A
C878        C879   1.517       .  S
C879        F883   1.384       .  S
C879        F884   1.383       .  S
C879        F885   1.383       .  S
C882        F886   1.383       .  S
C882        F887   1.383       .  S
C882        F888   1.384       .  S
C889        C890   1.401       .  A
C889        C894   1.416       .  A
C889        H896   1.084       .  S
C890        C891   1.417       .  A
C891        C892   1.401       .  A
C891        C898   1.519       .  S
C892        C893   1.409       .  A
C892        H897   1.081       .  S
C893        C894   1.432       .  A
C894        C895   1.518       .  S
C895        F899   1.384       .  S
C895        F900   1.382       .  S
C895        F901   1.383       .  S
C898        F902   1.383       .  S
C898        F903   1.383       .  S
C898        F904   1.384       .  S
C905        C906   1.401       .  A
C905        C910   1.407   1_455  A
C905        H912   1.084   1_455  S
C906        C907   1.426       .  A
C907        C908   1.405       .  A
C907        C914   1.518       .  S
C908        C909   1.399   1_455  A
C908        H913   1.084       .  S
C909        C910   1.423       .  A
C910        C911   1.516       .  S
C911        F915   1.384       .  S
C911        F916   1.383       .  S
C911        F917   1.382       .  S
C914        F918   1.383       .  S
C914        F919   1.383       .  S
C914        F920   1.384       .  S
C921        C922   1.404       .  A
C921        C926   1.406       .  A
C921        H928   1.083       .  S
C922        C923   1.421       .  A
C923        C924   1.398       .  A
C923        C930   1.523       .  S
C924        C925   1.402       .  A
C924        H929   1.084       .  S
C925        C926   1.415       .  A
C926        C927   1.517       .  S
C927        F931   1.385       .  S
C927        F932   1.384       .  S
C927        F933   1.380       .  S
C930        F934   1.383       .  S
C930        F935   1.381       .  S
C930        F936   1.386       .  S
C937        C938   1.404       .  A
C937        C942   1.405       .  A
C937        H944   1.083       .  S
C938        C939   1.416       .  A
C939        C940   1.414       .  A
C939        C946   1.515       .  S
C940        C941   1.408       .  A
C940        H945   1.083       .  S
C941        C942   1.423       .  A
C942        C943   1.525       .  S
C943        F947   1.385       .  S
C943        F948   1.380       .  S
C943        F949   1.381       .  S
C946        F950   1.382       .  S
C946        F951   1.383       .  S
C946        F952   1.384       .  S
C953        C954   1.411       .  A
C953        C958   1.411       .  A
C953        H960   1.083       .  S
C954        C955   1.430       .  A
C955        C956   1.408       .  A
C955        C962   1.524       .  S
C956        C957   1.398       .  A
C956        H961   1.083       .  S
C957        C958   1.412       .  A
C958        C959   1.517       .  S
C959        F963   1.384       .  S
C959        F964   1.382       .  S
C959        F965   1.384       .  S
C962        F966   1.381       .  S
C962        F967   1.381       .  S
C962        F968   1.385       .  S
C969        C970   1.407       .  A
C969        C974   1.417       .  A
C969        H976   1.083       .  S
C970        C971   1.420       .  A
C971        C972   1.397       .  A
C971        C978   1.522       .  S
C972        C973   1.402       .  A
C972        H977   1.085       .  S
C973        C974   1.418       .  A
C974        C975   1.515       .  S
C975        F979   1.384       .  S
C975        F980   1.383       .  S
C975        F981   1.381       .  S
C978        F982   1.383       .  S
C978        F983   1.383       .  S
C978        F984   1.385       .  S
C985        C986   1.407       .  A
C985        C990   1.416       .  A
C985        H992   1.083       .  S
C986        C987   1.419       .  A
C987        C988   1.399       .  A
C987        C994   1.519       .  S
C988        C989   1.402       .  A
C988        H993   1.085       .  S
C989        C990   1.417       .  A
C990        C991   1.516       .  S
C991        F995   1.384       .  S
C991        F996   1.381       .  S
C991        F997   1.383       .  S
C994        F998   1.383       .  S
C994        F999   1.383       .  S
C994       F1000   1.384       .  S
C1001      C1002   1.402       .  A
C1001      C1006   1.403       .  A
C1001      H1008   1.083       .  S
C1002      C1003   1.413       .  A
C1003      C1004   1.401       .  A
C1003      C1010   1.518       .  S
C1004      C1005   1.402       .  A
C1004      H1009   1.083       .  S
C1005      C1006   1.414       .  A
C1006      C1007   1.518       .  S
C1007      F1011   1.384       .  S
C1007      F1012   1.381       .  S
C1007      F1013   1.383       .  S
C1010      F1014   1.382       .  S
C1010      F1015   1.383       .  S
C1010      F1016   1.385       .  S
C1017      C1018   1.409       .  A
C1017      C1022   1.416       .  A
C1017      H1024   1.083       .  S
C1018      C1019   1.421       .  A
C1019      C1020   1.403       .  A
C1019      C1026   1.525       .  S
C1020      C1021   1.407       .  A
C1020      H1025   1.082       .  S
C1021      C1022   1.420       .  A
C1022      C1023   1.517       .  S
C1023      F1027   1.385       .  S
C1023      F1028   1.383       .  S
C1023      F1029   1.381       .  S
C1026      F1030   1.383       .  S
C1026      F1031   1.382       .  S
C1026      F1032   1.385       .  S
C1033      C1034   1.411       .  A
C1033      C1038   1.408   1_556  A
C1033      H1040   1.082       .  S
C1034      C1035   1.416   1_556  A
C1035      C1036   1.409       .  A
C1035      C1042   1.517       .  S
C1036      C1037   1.411       .  A
C1036      H1041   1.082       .  S
C1037      C1038   1.416       .  A
C1038      C1039   1.519   1_554  S
C1039      F1043   1.385       .  S
C1039      F1044   1.383       .  S
C1039      F1045   1.381       .  S
C1042      F1046   1.383       .  S
C1042      F1047   1.382       .  S
C1042      F1048   1.385       .  S
C1049      C1050   1.405       .  A
C1049      C1054   1.418       .  A
C1049      H1056   1.084       .  S
C1050      C1051   1.421       .  A
C1051      C1052   1.400       .  A
C1051      C1058   1.521       .  S
C1052      C1053   1.407       .  A
C1052      H1057   1.083       .  S
C1053      C1054   1.429       .  A
C1054      C1055   1.516       .  S
C1055      F1059   1.384       .  S
C1055      F1060   1.382       .  S
C1055      F1061   1.383       .  S
C1058      F1062   1.383       .  S
C1058      F1063   1.383       .  S
C1058      F1064   1.385       .  S
C1065      C1066   1.408       .  A
C1065      C1070   1.405       .  A
C1065      H1072   1.082       .  S
C1066      C1067   1.427       .  A
C1067      C1068   1.400       .  A
C1067      C1074   1.524       .  S
C1068      C1069   1.399       .  A
C1068      H1073   1.084       .  S
C1069      C1070   1.411       .  A
C1070      C1071   1.517       .  S
C1071      F1075   1.384       .  S
C1071      F1076   1.384       .  S
C1071      F1077   1.381       .  S
C1074      F1078   1.383       .  S
C1074      F1079   1.382       .  S
C1074      F1080   1.386       .  S
C1081      C1082   1.411       .  A
C1081      C1086   1.408       .  A
C1081      H1088   1.082       .  S
C1082      C1083   1.417       .  A
C1083      C1084   1.410   1_545  A
C1083      C1090   1.518   1_545  S
C1084      C1085   1.411       .  A
C1084      H1089   1.082       .  S
C1085      C1086   1.417   1_565  A
C1086      C1087   1.518       .  S
C1087      F1091   1.385       .  S
C1087      F1092   1.383       .  S
C1087      F1093   1.381       .  S
C1090      F1094   1.383   1_565  S
C1090      F1095   1.382   1_565  S
C1090      F1096   1.385       .  S
C1097      C1098   1.406       .  A
C1097      C1102   1.404       .  A
C1097      H1104   1.083       .  S
C1098      C1099   1.422       .  A
C1099      C1100   1.404       .  A
C1099      C1106   1.519       .  S
C1100      C1101   1.398       .  A
C1100      H1105   1.084       .  S
C1101      C1102   1.409       .  A
C1102      C1103   1.517       .  S
C1103      F1107   1.384       .  S
C1103      F1108   1.383       .  S
C1103      F1109   1.383       .  S
C1106      F1110   1.382       .  S
C1106      F1111   1.383       .  S
C1106      F1112   1.385       .  S
C1113      C1114   1.410       .  A
C1113      C1118   1.408       .  A
C1113      H1120   1.082       .  S
C1114      C1115   1.417   1_556  A
C1115      C1116   1.409       .  A
C1115      C1122   1.518       .  S
C1116      C1117   1.409       .  A
C1116      H1121   1.082       .  S
C1117      C1118   1.416   1_554  A
C1118      C1119   1.519       .  S
C1119      F1123   1.385       .  S
C1119      F1124   1.383       .  S
C1119      F1125   1.382       .  S
C1122      F1126   1.383       .  S
C1122      F1127   1.382       .  S
C1122      F1128   1.385       .  S
C1129      C1130   1.408       .  A
C1129      C1134   1.412       .  A
C1129      H1136   1.083       .  S
C1130      C1131   1.425       .  A
C1131      C1132   1.409       .  A
C1131      C1138   1.523       .  S
C1132      C1133   1.402       .  A
C1132      H1137   1.083       .  S
C1133      C1134   1.417       .  A
C1134      C1135   1.518       .  S
C1135      F1139   1.385       .  S
C1135      F1140   1.381       .  S
C1135      F1141   1.384       .  S
C1138      F1142   1.381       .  S
C1138      F1143   1.383       .  S
C1138      F1144   1.385       .  S
C1145      C1146   1.399       .  A
C1145      C1150   1.405   1_545  A
C1145      H1152   1.084       .  S
C1146      C1147   1.424       .  A
C1147      C1148   1.408       .  A
C1147      C1154   1.517       .  S
C1148      C1149   1.400   1_545  A
C1148      H1153   1.084       .  S
C1149      C1150   1.425       .  A
C1150      C1151   1.518       .  S
C1151      F1155   1.384       .  S
C1151      F1156   1.383       .  S
C1151      F1157   1.383       .  S
C1154      F1158   1.383       .  S
C1154      F1159   1.383       .  S
C1154      F1160   1.384       .  S
C1161      C1162   1.398       .  A
C1161      C1166   1.403       .  A
C1161      H1168   1.083       .  S
C1162      C1163   1.412       .  A
C1163      C1164   1.400       .  A
C1163      C1170   1.520       .  S
C1164      C1165   1.403       .  A
C1164      H1169   1.083       .  S
C1165      C1166   1.419       .  A
C1166      C1167   1.520       .  S
C1167      F1171   1.385       .  S
C1167      F1172   1.381       .  S
C1167      F1173   1.383       .  S
C1170      F1174   1.382       .  S
C1170      F1175   1.383       .  S
C1170      F1176   1.385       .  S
C1177      C1178   1.402       .  A
C1177      C1182   1.416       .  A
C1177      H1184   1.083       .  S
C1178      C1179   1.410       .  A
C1179      C1180   1.406       .  A
C1179      C1186   1.520       .  S
C1180      C1181   1.413       .  A
C1180      H1185   1.082       .  S
C1181      C1182   1.427       .  A
C1182      C1183   1.516       .  S
C1183      F1187   1.385       .  S
C1183      F1188   1.382       .  S
C1183      F1189   1.383       .  S
C1186      F1190   1.383       .  S
C1186      F1191   1.382       .  S
C1186      F1192   1.384       .  S
C1193      C1194   1.403       .  A
C1193      C1198   1.402       .  A
C1193      H1200   1.083       .  S
C1194      C1195   1.417       .  A
C1195      C1196   1.417       .  A
C1195      C1202   1.516       .  S
C1196      C1197   1.411       .  A
C1196      H1201   1.083       .  S
C1197      C1198   1.424       .  A
C1198      C1199   1.522       .  S
C1199      F1203   1.385       .  S
C1199      F1204   1.383       .  S
C1199      F1205   1.380       .  S
C1202      F1206   1.383       .  S
C1202      F1207   1.381       .  S
C1202      F1208   1.384       .  S
C1209      C1210   1.409       .  A
C1209      C1214   1.405       .  A
C1209      H1216   1.073       .  S
C1210      C1211   1.425       .  A
C1211      C1212   1.411       .  A
C1211      C1218   1.516       .  S
C1212      C1213   1.402       .  A
C1212      H1217   1.084       .  S
C1213      C1214   1.410       .  A
C1214      C1215   1.518       .  S
C1215      F1219   1.385       .  S
C1215      F1220   1.382       .  S
C1215      F1221   1.383       .  S
C1218      F1222   1.383       .  S
C1218      F1223   1.382       .  S
C1218      F1224   1.384       .  S
C1225      C1226   1.408       .  A
C1225      C1230   1.415       .  A
C1225      H1232   1.083       .  S
C1226      C1227   1.422       .  A
C1227      C1228   1.403       .  A
C1227      C1234   1.523       .  S
C1228      C1229   1.403       .  A
C1228      H1233   1.083       .  S
C1229      C1230   1.421       .  A
C1230      C1231   1.517       .  S
C1231      F1235   1.385       .  S
C1231      F1236   1.381       .  S
C1231      F1237   1.383       .  S
C1234      F1238   1.380       .  S
C1234      F1239   1.382       .  S
C1234      F1240   1.385       .  S
C1241      C1242   1.409       .  A
C1241      C1246   1.416       .  A
C1241      H1248   1.083       .  S
C1242      C1243   1.421       .  A
C1243      C1244   1.404       .  A
C1243      C1250   1.524       .  S
C1244      C1245   1.406       .  A
C1244      H1249   1.083       .  S
C1245      C1246   1.419       .  A
C1246      C1247   1.516       .  S
C1247      F1251   1.385       .  S
C1247      F1252   1.382       .  S
C1247      F1253   1.383       .  S
C1250      F1254   1.380       .  S
C1250      F1255   1.381       .  S
C1250      F1256   1.385       .  S
C1257      C1258   1.411       .  A
C1257      C1262   1.406       .  A
C1257      H1264   1.081       .  S
C1258      C1259   1.427       .  A
C1259      C1260   1.411       .  A
C1259      C1266   1.517       .  S
C1260      C1261   1.401       .  A
C1260      H1265   1.084       .  S
C1261      C1262   1.411       .  A
C1262      C1263   1.518       .  S
C1263      F1267   1.385       .  S
C1263      F1268   1.381       .  S
C1263      F1269   1.384       .  S
C1266      F1270   1.383       .  S
C1266      F1271   1.382       .  S
C1266      F1272   1.384       .  S
C1273      C1274   1.401       .  A
C1273      C1278   1.413       .  A
C1273      H1280   1.084       .  S
C1274      C1275   1.417       .  A
C1275      C1276   1.402       .  A
C1275      C1282   1.520       .  S
C1276      C1277   1.409       .  A
C1276      H1281   1.081       .  S
C1277      C1278   1.428       .  A
C1278      C1279   1.518       .  S
C1279      F1283   1.384       .  S
C1279      F1284   1.382       .  S
C1279      F1285   1.383       .  S
C1282      F1286   1.384       .  S
C1282      F1287   1.381       .  S
C1282      F1288   1.385       .  S
C1289      C1290   1.403       .  A
C1289      C1294   1.406       .  A
C1289      H1296   1.083       .  S
C1290      C1291   1.419       .  A
C1291      C1292   1.412       .  A
C1291      C1298   1.518       .  S
C1292      C1293   1.405       .  A
C1292      H1297   1.083       .  S
C1293      C1294   1.420       .  A
C1294      C1295   1.523       .  S
C1295      F1299   1.385       .  S
C1295      F1300   1.381       .  S
C1295      F1301   1.383       .  S
C1298      F1302   1.381       .  S
C1298      F1303   1.383       .  S
C1298      F1304   1.385       .  S
C1305      C1306   1.407       .  A
C1305      C1310   1.413       .  A
C1305      H1312   1.083       .  S
C1306      C1307   1.420       .  A
C1307      C1308   1.402       .  A
C1307      C1314   1.519       .  S
C1308      C1309   1.400       .  A
C1308      H1313   1.085       .  S
C1309      C1310   1.412       .  A
C1310      C1311   1.514       .  S
C1311      F1315   1.384       .  S
C1311      F1316   1.383       .  S
C1311      F1317   1.383       .  S
C1314      F1318   1.383       .  S
C1314      F1319   1.381       .  S
C1314      F1320   1.384       .  S
C1321      C1322   1.404       .  A
C1321      C1326   1.403       .  A
C1321      H1328   1.083       .  S
C1322      C1323   1.415       .  A
C1323      C1324   1.415       .  A
C1323      C1330   1.516       .  S
C1324      C1325   1.412       .  A
C1324      H1329   1.083       .  S
C1325      C1326   1.426       .  A
C1326      C1327   1.525       .  S
C1327      F1331   1.385       .  S
C1327      F1332   1.382       .  S
C1327      F1333   1.382       .  S
C1330      F1334   1.383       .  S
C1330      F1335   1.381       .  S
C1330      F1336   1.385       .  S
C1337      C1338   1.406       .  A
C1337      C1342   1.418       .  A
C1337      H1344   1.084       .  S
C1338      C1339   1.414       .  A
C1339      C1340   1.396       .  A
C1339      C1346   1.519       .  S
C1340      C1341   1.401       .  A
C1340      H1345   1.081       .  S
C1341      C1342   1.421       .  A
C1342      C1343   1.516       .  S
C1343      F1347   1.384       .  S
C1343      F1348   1.381       .  S
C1343      F1349   1.383       .  S
C1346      F1350   1.382       .  S
C1346      F1351   1.384       .  S
C1346      F1352   1.385       .  S
C1353      C1354   1.412       .  A
C1353      C1358   1.418       .  A
C1353      H1360   1.082       .  S
C1354      C1355   1.426       .  A
C1355      C1356   1.399       .  A
C1355      C1362   1.521       .  S
C1356      C1357   1.400       .  A
C1356      H1361   1.082       .  S
C1357      C1358   1.417       .  A
C1358      C1359   1.516       .  S
C1359      F1363   1.384       .  S
C1359      F1364   1.383       .  S
C1359      F1365   1.381       .  S
C1362      F1366   1.383       .  S
C1362      F1367   1.380       .  S
C1362      F1368   1.385       .  S
C1369      C1370   1.402       .  A
C1369      C1374   1.416       .  A
C1369      H1376   1.084       .  S
C1370      C1371   1.415       .  A
C1371      C1372   1.399       .  A
C1371      C1378   1.520       .  S
C1372      C1373   1.410       .  A
C1372      H1377   1.081       .  S
C1373      C1374   1.430       .  A
C1374      C1375   1.517       .  S
C1375      F1379   1.384       .  S
C1375      F1380   1.382       .  S
C1375      F1381   1.383       .  S
C1378      F1382   1.383       .  S
C1378      F1383   1.383       .  S
C1378      F1384   1.384       .  S
C1385      C1386   1.408       .  A
C1385      C1390   1.401       .  A
C1385      H1392   1.082       .  S
C1386      C1387   1.429       .  A
C1387      C1388   1.414       .  A
C1387      C1394   1.517       .  S
C1388      C1389   1.402       .  A
C1388      H1393   1.084       .  S
C1389      C1390   1.419       .  A
C1390      C1391   1.520       .  S
C1391      F1395   1.385       .  S
C1391      F1396   1.383       .  S
C1391      F1397   1.383       .  S
C1394      F1398   1.382       .  S
C1394      F1399   1.383       .  S
C1394      F1400   1.384       .  S
C1401      C1402   1.413       .  A
C1401      C1406   1.416       .  A
C1401      H1408   1.082       .  S
C1402      C1403   1.424       .  A
C1403      C1404   1.402       .  A
C1403      C1410   1.526       .  S
C1404      C1405   1.406       .  A
C1404      H1409   1.082       .  S
C1405      C1406   1.418       .  A
C1406      C1407   1.517       .  S
C1407      F1411   1.385       .  S
C1407      F1412   1.383       .  S
C1407      F1413   1.381       .  S
C1410      F1414   1.383       .  S
C1410      F1415   1.382       .  S
C1410      F1416   1.386       .  S
