geometry optimzed in LAMMPS
_audit_creation_date              2020-11-30 
_audit_creation_method            'lammps2cif' 
_symmetry_space_group_name_H-M    'P1' 
_symmetry_Int_Tables_number       1 
_symmetry_cell_setting            triclinic 
loop_ 
_symmetry_equiv_pos_as_xyz 
  x,y,z 
_cell_length_a                    37.4968645581677 
_cell_length_b                    31.87154495376442 
_cell_length_c                    28.275890844948865 
_cell_angle_alpha                 90.24459713061847 
_cell_angle_beta                  90.76674936998204 
_cell_angle_gamma                 90.66974611859217 
loop_ 
_atom_site_label 
_atom_site_type_symbol 
_atom_site_fract_x 
_atom_site_fract_y 
_atom_site_fract_z 
_atom_site_charge 
C1          C  0.36119363  0.09500875  0.17399472     0.03470
C2          C  0.35715241  0.05688647  0.14885689    -0.12680
C3          C  0.35964639  0.05616922  0.09924440     0.00970
C4          C  0.36707598  0.09338079  0.07486705    -0.11210
C5          C  0.37054866  0.13132104  0.09960952     0.03460
C6          C  0.36599123  0.13225937  0.14851141    -0.10630
H7          H  0.35202978  0.02791791  0.16763226     0.09060
H8          H  0.36977212  0.09290332  0.03674986     0.06580
H9          H  0.36763581  0.16213058  0.16691548     0.06430
C10         C  0.10729181  0.23659305  0.17266822     0.03470
C11         C  0.10222081  0.27292695  0.14556510    -0.12680
C12         C  0.10617435  0.27144675  0.09621246     0.00970
C13         C  0.11528694  0.23354420  0.07424895    -0.11210
C14         C  0.12029495  0.19724302  0.10135159     0.03460
C15         C  0.11612115  0.19898491  0.15038224    -0.10630
H16         H  0.09502904  0.30204436  0.16271920     0.09060
H17         H  0.11840398  0.23229159  0.03622355     0.06580
H18         H  0.12035466  0.17105373  0.17143579     0.06430
C19         C  0.36807234  0.45650512  0.02631433     0.03470
C20         C  0.37734914  0.49086617  0.05567732    -0.12680
C21         C  0.35073827  0.01785575  0.07202651     0.00970
C22         C  0.31505952  0.01053202  0.05899698    -0.11210
C23         C  0.30541620  0.47664441  0.02953956     0.03460
C24         C  0.33199279  0.44971439  0.01359488    -0.10630
H25         H  0.40499289  0.49694655  0.06528451     0.09060
H26         H  0.29491284  0.03209103  0.07105838     0.06580
H27         H  0.32453136  0.42357974  0.99077349     0.06430
O28         O  0.25722466  0.44006242  0.98881853    -0.57480
C29         C  0.14411249  0.40132045  0.00843941     0.75150
O30         O  0.16387965  0.03340145  0.97676154    -0.58630
C31         C  0.26791891  0.47111741  0.01359060     0.75130
C32         C  0.20264555  0.47499010  0.87868633     0.77520
Cd33       Cd  0.19495616  0.46601760  0.97996592     1.37460
O34         O  0.17608920  0.40053292  0.02318856    -0.57470
O35         O  0.21698158  0.44477142  0.90048309    -0.56280
C36         C  0.16875071  0.04217951  0.02008190     0.77480
O37         O  0.18460553  0.49953136  0.90370511    -0.58650
O38         O  0.13668956  0.43040223  0.98000232    -0.57110
O39         O  0.24477090  0.99812110  0.02338825    -0.57100
O40         O  0.18433448  0.01490075  0.04510138    -0.56270
C41         C  0.11641775  0.37087403  0.02370525     0.03470
C42         C  0.12489498  0.33644476  0.05269193    -0.12680
C43         C  0.09795067  0.30841653  0.06703432     0.00970
C44         C  0.06264557  0.31472935  0.05231121    -0.11210
C45         C  0.05370703  0.34891989  0.02355531     0.03460
C46         C  0.08068105  0.37684828  0.00952483    -0.10630
H47         H  0.15222109  0.33130995  0.06393607     0.09060
H48         H  0.04214454  0.29270893  0.06330110     0.06580
H49         H  0.07379954  0.40320721  0.98725016     0.06430
O50         O  0.00561914  0.38775504  0.98754427    -0.57480
C51         C  0.39512469  0.42689572  0.00881591     0.75150
O52         O  0.42230711  0.33673182  0.89945458    -0.58630
C53         C  0.01633826  0.35455830  0.00763286     0.75130
C54         C  0.41522162  0.28698081  0.01754806     0.77520
Cd55       Cd  0.44313906  0.36184795  0.97674897     1.37470
O56         O  0.42744190  0.42757081  0.02229201    -0.57470
O57         O  0.43114320  0.31452597  0.04261513    -0.56280
C58         C  0.44600723  0.35440970  0.87506649     0.77480
O59         O  0.41164084  0.29426697  0.97385568    -0.58650
O60         O  0.38657045  0.39839216  0.97969417    -0.57110
O61         O  0.49326831  0.32586814  0.01336419    -0.57100
O62         O  0.46874295  0.37680332  0.89739712    -0.56270
C63         C  0.44190296  0.34024355  0.67180718     0.03470
C64         C  0.43459254  0.37755250  0.64785094    -0.12680
C65         C  0.43406369  0.37869821  0.59835055     0.00970
C66         C  0.43985881  0.34166833  0.57270578    -0.11210
C67         C  0.44681729  0.30398565  0.59631497     0.03460
C68         C  0.44835832  0.30342859  0.64597153    -0.10630
H69         H  0.42901465  0.40574276  0.66792173     0.09060
H70         H  0.43930282  0.34223233  0.53437829     0.06580
H71         H  0.45428598  0.27452008  0.66436715     0.06430
C72         C  0.19485249  0.48519701  0.67467389     0.03470
C73         C  0.17820922  0.45086211  0.65197706    -0.12680
C74         C  0.17111651  0.45135864  0.60326728     0.00970
C75         C  0.17850981  0.48770390  0.57725002    -0.11210
C76         C  0.19363803  0.52307883  0.59967281     0.03460
C77         C  0.20250878  0.52141929  0.64807262    -0.10630
H78         H  0.17124328  0.42315016  0.67206492     0.09060
H79         H  0.17323922  0.48812703  0.53947441     0.06580
H80         H  0.21541924  0.04827841  0.66484843     0.06430
C81         C  0.43622254  0.20302311  0.52553997     0.03470
C82         C  0.42801352  0.23772835  0.55425974    -0.12680
C83         C  0.45500906  0.26615979  0.56857613     0.00970
C84         C  0.49006850  0.26002489  0.55404884    -0.11210
C85         C  0.99870184  0.22564243  0.52539548     0.03460
C86         C  0.47172027  0.19723726  0.51147773    -0.10630
H87         H  0.40080904  0.24288794  0.56513319     0.09060
H88         H  0.01054188  0.28253525  0.56478930     0.06580
H89         H  0.47836784  0.17079113  0.48919760     0.06430
O90         O  0.12572582  0.14946660  0.52013369    -0.57480
C91         C  0.03568821  0.22061175  0.50911987     0.75150
O92         O  0.13817165  0.28394966  0.47654764    -0.58630
C93         C  0.15818153  0.15171456  0.50868770     0.75130
C94         C  0.10288365  0.22418194  0.37596299     0.77520
Cd95       Cd  0.10828810  0.21550968  0.47754335     1.37460
O96         O  0.04581695  0.18891531  0.48581341    -0.57470
O97         O  0.08843744  0.19336192  0.39671763    -0.56280
C98         C  0.13457014  0.29117885  0.52026722     0.77480
O99         O  0.11979890  0.24994498  0.40210240    -0.58650
O100        O  0.05903288  0.24852702  0.51766223    -0.57110
O101        O  0.16654879  0.18186197  0.48213641    -0.57100
O102        O  0.12001833  0.26256391  0.54455260    -0.56270
C103        C  0.18539518  0.12185330  0.52584527     0.03470
C104        C  0.17622753  0.08720814  0.55414161    -0.12680
C105        C  0.20287269  0.06045560  0.57154099     0.00970
C106        C  0.23859783  0.06826234  0.56042776    -0.11210
C107        C  0.24807066  0.10204832  0.53128509     0.03460
C108        C  0.22138914  0.12874097  0.51438535    -0.10630
H109        H  0.14860131  0.08110151  0.56282985     0.09060
H110        H  0.25884524  0.04698896  0.57330883     0.06580
H111        H  0.22871409  0.15489574  0.49201519     0.06430
O112        O  0.37593378  0.17539688  0.52139206    -0.57480
C113        C  0.28536705  0.10733777  0.51594002     0.75150
O114        O  0.34696227  0.07416208  0.40312213    -0.58630
C115        C  0.40839591  0.17242407  0.50995959     0.75130
C116        C  0.38729804  0.03329945  0.51466649     0.77520
Cd117      Cd  0.35702436  0.10911358  0.47995798     1.37460
O118        O  0.29474746  0.13465381  0.48602117    -0.57470
O119        O  0.38636055  0.06600007  0.54015571    -0.56280
C120        C  0.35257406  0.10619425  0.37804774     0.77480
O121        O  0.37611614  0.03654590  0.47245431    -0.58650
O122        O  0.30954407  0.08345557  0.53093719    -0.57110
O123        O  0.41616394  0.14128133  0.48440563    -0.57100
O124        O  0.35956793  0.14004577  0.40003645    -0.56270
C125        C  0.15942254  0.41221417  0.57934563    -0.05780
C126        C  0.18233377  0.39438935  0.54615781    -0.16910
C127        C  0.17564120  0.35436718  0.52743657     0.11410
C128        C  0.14497835  0.33178794  0.54151318    -0.05710
C129        C  0.12194462  0.34973382  0.57445957    -0.16940
C130        C  0.12855184  0.38980494  0.59302784     0.11440
S131        S  0.20831479  0.33295273  0.48811629    -0.31910
S132        S  0.09612524  0.41095784  0.63295335    -0.31920
H133        H  0.10272829  0.45333490  0.62209197     0.29450
H134        H  0.20512334  0.29154346  0.50473926     0.29450
H135        H  0.20649643  0.41101928  0.53637480     0.20040
H136        H  0.09797588  0.33294057  0.58473094     0.20050
C137        C  0.42510221  0.41809624  0.57370152    -0.05780
C138        C  0.39601283  0.41756117  0.54200954    -0.16910
C139        C  0.38310968  0.45459114  0.52231951     0.11410
C140        C  0.40018471  0.99325761  0.53366243    -0.05710
C141        C  0.42969797  0.99378230  0.56464636    -0.16940
C142        C  0.44265661  0.45664846  0.58412777     0.11440
S143        S  0.34333028  0.45059603  0.48594093    -0.31910
S144        S  0.48237491  0.96060032  0.62092624    -0.31920
H145        H  0.49514211  0.42049311  0.60975581     0.29450
H146        H  0.32705919  0.48610794  0.50556262     0.29450
H147        H  0.38208211  0.38827047  0.53437089     0.20040
H148        H  0.44304056  0.02327660  0.57315296     0.20050
C149        C  0.44606293  0.34937471  0.82320835    -0.05780
C150        C  0.41331370  0.35232264  0.79897391    -0.16910
C151        C  0.41108092  0.34798295  0.74986239     0.11410
C152        C  0.44231132  0.34040222  0.72398587    -0.05710
C153        C  0.47505902  0.33676987  0.74813153    -0.16940
C154        C  0.47725650  0.34093517  0.79746460     0.11440
S155        S  0.36765092  0.35300941  0.72231963    -0.31910
S156        S  0.02028477  0.33407144  0.82538372    -0.31920
H157        H  0.00718753  0.31378284  0.86578733     0.29450
H158        H  0.37404953  0.32602961  0.68397327     0.29450
H159        H  0.38922247  0.35850956  0.81847524     0.20040
H160        H  0.49911036  0.33113990  0.72833473     0.20050
C161        C  0.20563108  0.48052046  0.82668281    -0.05780
C162        C  0.21758567  0.44684208  0.79910555    -0.16910
C163        C  0.21676993  0.44848473  0.74945805     0.11410
C164        C  0.20203068  0.48392803  0.72660564    -0.05710
C165        C  0.19219944  0.51847581  0.75419102    -0.16940
C166        C  0.19497911  0.51775076  0.80348140     0.11440
S167        S  0.23598915  0.40595875  0.71607996    -0.31910
S168        S  0.18540959  0.06594109  0.83408071    -0.31920
H169        H  0.21450845  0.06260490  0.86577611     0.29450
H170        H  0.24629477  0.38121744  0.75488900     0.29450
H171        H  0.22713403  0.41885901  0.81650572     0.20040
H172        H  0.18185941  0.04630478  0.73724687     0.20050
C173        C  0.15701756  0.08234624  0.04024767    -0.05780
C174        C  0.12403614  0.09862069  0.02561320    -0.16910
C175        C  0.11098318  0.13567865  0.04535738     0.11410
C176        C  0.13185073  0.15767216  0.07944868    -0.05710
C177        C  0.16491648  0.14159312  0.09368959    -0.16940
C178        C  0.17784823  0.10456283  0.07422727     0.11440
S179        S  0.06705209  0.15217647  0.02712931    -0.31910
S180        S  0.22196769  0.08874852  0.09222439    -0.31920
H181        H  0.23254113  0.07851359  0.04609176     0.29450
H182        H  0.05796729  0.17062862  0.07052579     0.29450
H183        H  0.10782050  0.08165709  0.99974656     0.20040
H184        H  0.18115811  0.15859612  0.11950999     0.20050
C185        C  0.10148933  0.22974411  0.32396849    -0.05780
C186        C  0.13015241  0.25088787  0.30258674    -0.16880
C187        C  0.13231734  0.25433640  0.25343978     0.11410
C188        C  0.10479636  0.23722930  0.22463388    -0.05710
C189        C  0.07560886  0.21715839  0.24574888    -0.16940
C190        C  0.07337841  0.21374808  0.29499487     0.11440
S191        S  0.17155147  0.27944067  0.22972146    -0.31910
S192        S  0.03352965  0.18998973  0.31839495    -0.31920
H193        H  0.03075816  0.21858835  0.35619352     0.29450
H194        H  0.17385446  0.25420895  0.18901803     0.29450
H195        H  0.15186637  0.26342323  0.32421433     0.20040
H196        H  0.05439740  0.20408729  0.22362621     0.20050
C197        C  0.40274073  0.24755438  0.03797483    -0.05780
C198        C  0.42824900  0.21712504  0.04822118    -0.16910
C199        C  0.41836046  0.17838141  0.06705312     0.11410
C200        C  0.38195142  0.16988441  0.07568425    -0.05710
C201        C  0.35632108  0.20026352  0.06498867    -0.16940
C202        C  0.36636362  0.23913712  0.04622693     0.11440
S203        S  0.45377802  0.14170320  0.07892907    -0.31910
S204        S  0.33176943  0.27669777  0.03424138    -0.31920
H205        H  0.35297624  0.31297402  0.04074354     0.29450
H206        H  0.43598505  0.11518991  0.11043957     0.29450
H207        H  0.45616169  0.22365531  0.04147766     0.20040
H208        H  0.32845744  0.19390458  0.07215177     0.20050
C209        C  0.35287151  0.10381551  0.32588478    -0.05780
C210        C  0.37989833  0.12575976  0.30245850    -0.16910
C211        C  0.38453595  0.12141325  0.25377495     0.11410
C212        C  0.36007142  0.09661291  0.22662419    -0.05710
C213        C  0.33287191  0.07471644  0.25017942    -0.16940
C214        C  0.32918387  0.07778124  0.29934253     0.11440
S215        S  0.42394649  0.14576879  0.22959303    -0.31910
S216        S  0.29302530  0.04881436  0.32571507    -0.31920
H217        H  0.28525593  0.07971175  0.35961070     0.29450
H218        H  0.43011383  0.11338381  0.19690092     0.29450
H219        H  0.39889716  0.14468811  0.32268877     0.20040
H220        H  0.31378535  0.05585210  0.23007049     0.20050
C221        C  0.36119459  0.59501317  0.17400108     0.03470
C222        C  0.35716102  0.55688841  0.14886493    -0.12680
C223        C  0.35965794  0.55616853  0.09925261     0.00970
C224        C  0.36708682  0.59337937  0.07487380    -0.11210
C225        C  0.37055157  0.63132194  0.09961323     0.03460
C226        C  0.36598739  0.63226303  0.14851409    -0.10630
H227        H  0.35204064  0.52791973  0.16764096     0.09060
H228        H  0.36978610  0.59290000  0.03675704     0.06580
H229        H  0.36762236  0.66213649  0.16691419     0.06430
C230        C  0.10728068  0.73659403  0.17264237     0.03470
C231        C  0.10220916  0.77292685  0.14553841    -0.12680
C232        C  0.10616940  0.77144752  0.09618712     0.00970
C233        C  0.11528910  0.73354654  0.07422549    -0.11210
C234        C  0.12029760  0.69724618  0.10132961     0.03460
C235        C  0.11611748  0.69898743  0.15035911    -0.10630
H236        H  0.09501136  0.80204288  0.16269083     0.09060
H237        H  0.11841027  0.73229418  0.03620077     0.06580
H238        H  0.12035070  0.67105683  0.17141378     0.06430
C239        C  0.36805999  0.95650466  0.02630903     0.03470
C240        C  0.37733702  0.99086657  0.05567049    -0.12680
C241        C  0.35075013  0.51785407  0.07203542     0.00970
C242        C  0.31507113  0.51052927  0.05900671    -0.11210
C243        C  0.30540434  0.97664618  0.02953174     0.03460
C244        C  0.33198037  0.94971407  0.01358980    -0.10630
H245        H  0.40498073  0.99694658  0.06527826     0.09060
H246        H  0.29492412  0.53208719  0.07106957     0.06580
H247        H  0.32451858  0.92357897  0.99076929     0.06430
O248        O  0.25721017  0.94005888  0.98882299    -0.57480
C249        C  0.14410151  0.90132785  0.00842431     0.75150
O250        O  0.16388898  0.53339322  0.97676525    -0.58630
C251        C  0.26790756  0.97112109  0.01358102     0.75130
C252        C  0.20264276  0.97498571  0.87867327     0.77520
Cd253      Cd  0.19494597  0.96602386  0.97995338     1.37460
O254        O  0.17607870  0.90053857  0.02317142    -0.57470
O255        O  0.21697413  0.94476803  0.90047687    -0.56280
C256        C  0.16875998  0.54217657  0.02008411     0.77480
O257        O  0.18460291  0.99953259  0.90368557    -0.58650
O258        O  0.13667763  0.93041224  0.97999091    -0.57110
O259        O  0.24477856  0.49810846  0.02341373    -0.57100
O260        O  0.18434433  0.51490126  0.04510785    -0.56270
C261        C  0.11640769  0.87087977  0.02368829     0.03470
C262        C  0.12488719  0.83644694  0.05266819    -0.12680
C263        C  0.09794422  0.80841666  0.06700927     0.00970
C264        C  0.06263811  0.81473075  0.05229176    -0.11210
C265        C  0.05369727  0.84892477  0.02354260     0.03460
C266        C  0.08067001  0.87685545  0.00951321    -0.10630
H267        H  0.15221394  0.83131160  0.06390922     0.09060
H268        H  0.04213797  0.79270915  0.06328158     0.06580
H269        H  0.07378682  0.90321704  0.98724349     0.06430
O270        O  0.00560557  0.88776427  0.98754742    -0.57480
C271        C  0.39511241  0.92689527  0.00881076     0.75150
O272        O  0.42227402  0.83678322  0.89943615    -0.58630
C273        C  0.01632757  0.85456360  0.00762487     0.75130
C274        C  0.41521760  0.78697750  0.01753370     0.77520
Cd275      Cd  0.44312837  0.86185104  0.97674162     1.37470
O276        O  0.42743153  0.92757652  0.02227899    -0.57470
O277        O  0.43109989  0.81454524  0.04261223    -0.56280
C278        C  0.44599373  0.85443486  0.87505736     0.77480
O279        O  0.41167466  0.79424233  0.97383173    -0.58650
O280        O  0.38655658  0.89838640  0.97969623    -0.57110
O281        O  0.49325990  0.82586947  0.01334823    -0.57100
O282        O  0.46874747  0.87679525  0.89739781    -0.56270
C283        C  0.44191718  0.84025747  0.67179766     0.03470
C284        C  0.43466369  0.87757431  0.64782515    -0.12680
C285        C  0.43415921  0.87871008  0.59832355     0.00970
C286        C  0.43992038  0.84166235  0.57269655    -0.11210
C287        C  0.44681040  0.80397032  0.59632115     0.03460
C288        C  0.44832997  0.80342219  0.64597814    -0.10630
H289        H  0.42910770  0.90577704  0.66788478     0.09060
H290        H  0.43938711  0.84221746  0.53436859     0.06580
H291        H  0.45421429  0.77450747  0.66438621     0.06430
C292        C  0.19488207  0.98517164  0.67465638     0.03470
C293        C  0.17823050  0.95084234  0.65195858    -0.12680
C294        C  0.17114318  0.95133914  0.60324727     0.00970
C295        C  0.17855362  0.98767917  0.57722856    -0.11210
C296        C  0.19369186  0.02304839  0.59965168     0.03460
C297        C  0.20255495  0.02138823  0.64805366    -0.10630
H298        H  0.17125193  0.92313537  0.67204752     0.09060
H299        H  0.17328551  0.98810358  0.53945244     0.06580
H300        H  0.21536828  0.54831324  0.66486591     0.06430
C301        C  0.43617898  0.70300113  0.52555876     0.03470
C302        C  0.42798114  0.73770412  0.55429059    -0.12680
C303        C  0.45498375  0.76613193  0.56859502     0.00970
C304        C  0.49003591  0.75999599  0.55404541    -0.11210
C305        C  0.99865809  0.72561778  0.52538258     0.03460
C306        C  0.47167229  0.69721405  0.51147665    -0.10630
H307        H  0.40078018  0.74286773  0.56517629     0.09060
H308        H  0.01051307  0.78250590  0.56477460     0.06580
H309        H  0.47831229  0.67077144  0.48918693     0.06430
O310        O  0.12566280  0.64948202  0.52012456    -0.57480
C311        C  0.03563878  0.72059581  0.50908761     0.75150
O312        O  0.13813394  0.78394464  0.47652335    -0.58630
C313        C  0.15811663  0.65172112  0.50866964     0.75130
C314        C  0.10283488  0.72418859  0.37593277     0.77520
Cd315      Cd  0.10823307  0.71551332  0.47751104     1.37460
O316        O  0.04576891  0.68889811  0.48578500    -0.57470
O317        O  0.08839343  0.69336276  0.39668237    -0.56280
C318        C  0.13452504  0.79117997  0.52024028     0.77480
O319        O  0.11973912  0.74995756  0.40207675    -0.58650
O320        O  0.05897785  0.74852142  0.51761348    -0.57110
O321        O  0.16648392  0.68185577  0.48210018    -0.57100
O322        O  0.11995582  0.76257460  0.54452149    -0.56270
C323        C  0.18532970  0.62186676  0.52583935     0.03470
C324        C  0.17616438  0.58722778  0.55414682    -0.12680
C325        C  0.20281282  0.56048601  0.57155937     0.00970
C326        C  0.23853742  0.56829870  0.56044961    -0.11210
C327        C  0.24800627  0.60207760  0.53129513     0.03460
C328        C  0.22132269  0.62875820  0.51438090    -0.10630
H329        H  0.14853815  0.58111738  0.56283214     0.09060
H330        H  0.25878744  0.54703264  0.57333920     0.06580
H331        H  0.22864589  0.65490780  0.49200208     0.06430
O332        O  0.37588268  0.67539749  0.52140474    -0.57480
C333        C  0.28530087  0.60736819  0.51594950     0.75150
O334        O  0.34698097  0.57415071  0.40312549    -0.58630
C335        C  0.40834495  0.67241038  0.50997817     0.75130
C336        C  0.38716412  0.53328428  0.51471302     0.77520
Cd337      Cd  0.35695451  0.60912114  0.47996866     1.37460
O338        O  0.29467372  0.63465295  0.48599080    -0.57470
O339        O  0.38631501  0.56602018  0.54015376    -0.56280
C340        C  0.35254214  0.60619627  0.37805353     0.77480
O341        O  0.37592254  0.53650101  0.47252460    -0.58650
O342        O  0.30948410  0.58351458  0.53098603    -0.57110
O343        O  0.41610574  0.64126243  0.48442723    -0.57100
O344        O  0.35947329  0.64006311  0.40004461    -0.56270
C345        C  0.15943221  0.91220031  0.57932632    -0.05780
C346        C  0.18233606  0.89436017  0.54614012    -0.16910
C347        C  0.17562460  0.85434280  0.52741653     0.11410
C348        C  0.14494931  0.83178404  0.54148771    -0.05710
C349        C  0.12192291  0.84974516  0.57443289    -0.16940
C350        C  0.12854955  0.88981157  0.59300439     0.11440
S351        S  0.20829099  0.83290655  0.48810084    -0.31910
S352        S  0.09613158  0.91098577  0.63292799    -0.31920
H353        H  0.10275520  0.95335881  0.62206768     0.29450
H354        H  0.20508220  0.79150064  0.50472906     0.29450
H355        H  0.20650739  0.91097379  0.53636001     0.20040
H356        H  0.09794548  0.83296788  0.58470131     0.20050
C357        C  0.42523409  0.91811009  0.57365072    -0.05780
C358        C  0.39618653  0.91757228  0.54189038    -0.16910
C359        C  0.38329680  0.95460085  0.52218471     0.11410
C360        C  0.40003268  0.49324246  0.53373332    -0.05710
C361        C  0.42957757  0.49376318  0.56466344    -0.16940
C362        C  0.44277073  0.95666597  0.58411707     0.11440
S363        S  0.34357234  0.95059405  0.48570129    -0.31910
S364        S  0.48229070  0.46057982  0.62087983    -0.31920
H365        H  0.49523606  0.92051385  0.60982100     0.29450
H366        H  0.32724436  0.98607015  0.50531944     0.29450
H367        H  0.38227148  0.88827967  0.53421100     0.20040
H368        H  0.44294246  0.52325272  0.57312884     0.20050
C369        C  0.44605462  0.84940511  0.82319891    -0.05780
C370        C  0.41331461  0.85240440  0.79895189    -0.16910
C371        C  0.41108774  0.84806456  0.74983975     0.11410
C372        C  0.44231438  0.84042962  0.72397628    -0.05710
C373        C  0.47505252  0.83674973  0.74813438    -0.16940
C374        C  0.47724412  0.84091641  0.79746746     0.11440
S375        S  0.36767073  0.85315998  0.72227932    -0.31910
S376        S  0.02025860  0.83398965  0.82540279    -0.31920
H377        H  0.00713143  0.81371861  0.86580026     0.29450
H378        H  0.37404524  0.82616524  0.68393857     0.29450
H379        H  0.38922656  0.85863022  0.81844395     0.20040
H380        H  0.49910140  0.83107931  0.72834731     0.20050
C381        C  0.20563406  0.98050839  0.82666933    -0.05780
C382        C  0.21758430  0.94682253  0.79910006    -0.16910
C383        C  0.21677581  0.94845921  0.74945220     0.11410
C384        C  0.20204964  0.98390527  0.72659068    -0.05710
C385        C  0.19222178  0.01845940  0.75416846    -0.16940
C386        C  0.19499320  0.01773904  0.80345978     0.11440
S387        S  0.23598742  0.90592147  0.71608532    -0.31910
S388        S  0.18539061  0.56594684  0.83411144    -0.31920
H389        H  0.21449486  0.56261506  0.86579879     0.29450
H390        H  0.24627975  0.88118019  0.75490051     0.29450
H391        H  0.22712359  0.91883833  0.81650675     0.20040
H392        H  0.18182769  0.54631963  0.73727642     0.20050
C393        C  0.15702589  0.58234541  0.04024296    -0.05780
C394        C  0.12404417  0.59861669  0.02560499    -0.16910
C395        C  0.11099006  0.63567674  0.04534245     0.11410
C396        C  0.13185685  0.65767564  0.07943001    -0.05710
C397        C  0.16492316  0.64160010  0.09367399    -0.16940
C398        C  0.17785604  0.60456754  0.07421846     0.11440
S399        S  0.06705840  0.65217020  0.02711140    -0.31910
S400        S  0.22197570  0.58875678  0.09221920    -0.31920
H401        H  0.23254928  0.57851216  0.04608931     0.29450
H402        H  0.05797206  0.67062574  0.07050544     0.29450
H403        H  0.10782907  0.58164891  0.99974119     0.20040
H404        H  0.18116382  0.65860699  0.11949221     0.20050
C405        C  0.10144940  0.72974999  0.32393877    -0.05780
C406        C  0.13011657  0.75089333  0.30256621    -0.16880
C407        C  0.13229135  0.75433927  0.25342026     0.11410
C408        C  0.10477605  0.73723028  0.22460640    -0.05710
C409        C  0.07558437  0.71715991  0.24571205    -0.16940
C410        C  0.07334438  0.71375169  0.29495710     0.11440
S411        S  0.17153016  0.77944287  0.22971409    -0.31910
S412        S  0.03349170  0.68999312  0.31834559    -0.31920
H413        H  0.03071568  0.71858843  0.35614658     0.29450
H414        H  0.17384027  0.75421125  0.18901153     0.29450
H415        H  0.15182624  0.76342983  0.32420063     0.20040
H416        H  0.05437727  0.70408771  0.22358285     0.20050
C417        C  0.40273804  0.74755094  0.03796109    -0.05780
C418        C  0.42824587  0.71711806  0.04819535    -0.16910
C419        C  0.41835864  0.67837761  0.06703669     0.11410
C420        C  0.38195151  0.66988578  0.07568562    -0.05710
C421        C  0.35632133  0.70026767  0.06499982    -0.16940
C422        C  0.36636252  0.73913918  0.04623122     0.11440
S423        S  0.45377402  0.64169486  0.07890266    -0.31910
S424        S  0.33176786  0.77670093  0.03425215    -0.31920
H425        H  0.35297763  0.81297747  0.04073213     0.29450
H426        H  0.43599767  0.61523021  0.11048099     0.29450
H427        H  0.45615729  0.72364443  0.04143910     0.20040
H428        H  0.32845897  0.69391200  0.07217432     0.20050
C429        C  0.35284919  0.60381838  0.32589114    -0.05780
C430        C  0.37986454  0.62578645  0.30247019    -0.16910
C431        C  0.38451173  0.62144143  0.25378764     0.11410
C432        C  0.36006486  0.59662046  0.22663149    -0.05710
C433        C  0.33287611  0.57470134  0.25018291    -0.16940
C434        C  0.32918199  0.57776192  0.29934538     0.11440
S435        S  0.42391478  0.64582308  0.22961679    -0.31910
S436        S  0.29304285  0.54875772  0.32571379    -0.31920
H437        H  0.28525571  0.57963784  0.35962148     0.29450
H438        H  0.43010565  0.61343856  0.19693281     0.29450
H439        H  0.39884870  0.64473144  0.32270488     0.20040
H440        H  0.31380280  0.55582028  0.23007199     0.20050
C441        C  0.86119364  0.09500873  0.17399471     0.03470
C442        C  0.85715242  0.05688646  0.14885687    -0.12680
C443        C  0.85964640  0.05616921  0.09924438     0.00970
C444        C  0.86707598  0.09338079  0.07486704    -0.11210
C445        C  0.87054867  0.13132103  0.09960952     0.03460
C446        C  0.86599124  0.13225936  0.14851140    -0.10630
H447        H  0.85202978  0.02791790  0.16763224     0.09060
H448        H  0.86977213  0.09290332  0.03674985     0.06580
H449        H  0.86763582  0.16213056  0.16691548     0.06430
C450        C  0.60729182  0.23659305  0.17266822     0.03470
C451        C  0.60222082  0.27292695  0.14556510    -0.12680
C452        C  0.60617435  0.27144676  0.09621246     0.00970
C453        C  0.61528695  0.23354421  0.07424895    -0.11210
C454        C  0.62029496  0.19724303  0.10135158     0.03460
C455        C  0.61612116  0.19898492  0.15038224    -0.10630
H456        H  0.59502904  0.30204436  0.16271920     0.09060
H457        H  0.61840399  0.23229159  0.03622355     0.06580
H458        H  0.62035467  0.17105373  0.17143579     0.06430
C459        C  0.86807234  0.45650512  0.02631433     0.03470
C460        C  0.87734915  0.49086617  0.05567732    -0.12680
C461        C  0.85073827  0.01785575  0.07202649     0.00970
C462        C  0.81505953  0.01053201  0.05899697    -0.11210
C463        C  0.80541620  0.47664442  0.02953956     0.03460
C464        C  0.83199280  0.44971440  0.01359488    -0.10630
H465        H  0.90499289  0.49694655  0.06528451     0.09060
H466        H  0.79491284  0.03209102  0.07105838     0.06580
H467        H  0.82453136  0.42357974  0.99077349     0.06430
O468        O  0.75722466  0.44006243  0.98881854    -0.57480
C469        C  0.64411249  0.40132045  0.00843941     0.75150
O470        O  0.66387965  0.03340146  0.97676153    -0.58630
C471        C  0.76791892  0.47111742  0.01359060     0.75130
C472        C  0.70264555  0.47499010  0.87868633     0.77520
Cd473      Cd  0.69495616  0.46601761  0.97996592     1.37460
O474        O  0.67608920  0.40053293  0.02318856    -0.57470
O475        O  0.71698158  0.44477142  0.90048309    -0.56280
C476        C  0.66875072  0.04217951  0.02008190     0.77480
O477        O  0.68460553  0.49953136  0.90370511    -0.58650
O478        O  0.63668956  0.43040224  0.98000233    -0.57110
O479        O  0.74477090  0.99812109  0.02338824    -0.57100
O480        O  0.68433448  0.01490076  0.04510137    -0.56270
C481        C  0.61641776  0.37087403  0.02370525     0.03470
C482        C  0.62489498  0.33644477  0.05269193    -0.12680
C483        C  0.59795068  0.30841653  0.06703432     0.00970
C484        C  0.56264557  0.31472935  0.05231121    -0.11210
C485        C  0.55370703  0.34891990  0.02355532     0.03460
C486        C  0.58068105  0.37684829  0.00952483    -0.10630
H487        H  0.65222110  0.33130996  0.06393607     0.09060
H488        H  0.54214455  0.29270894  0.06330111     0.06580
H489        H  0.57379954  0.40320721  0.98725016     0.06430
O490        O  0.50561914  0.38775504  0.98754427    -0.57480
C491        C  0.89512469  0.42689572  0.00881590     0.75150
O492        O  0.92230711  0.33673182  0.89945458    -0.58630
C493        C  0.51633826  0.35455830  0.00763286     0.75130
C494        C  0.91522162  0.28698081  0.01754806     0.77520
Cd495      Cd  0.94313905  0.36184795  0.97674897     1.37470
O496        O  0.92744190  0.42757081  0.02229200    -0.57470
O497        O  0.93114321  0.31452596  0.04261513    -0.56280
C498        C  0.94600722  0.35440970  0.87506649     0.77480
O499        O  0.91164083  0.29426698  0.97385568    -0.58650
O500        O  0.88657045  0.39839217  0.97969417    -0.57110
O501        O  0.99326830  0.32586814  0.01336418    -0.57100
O502        O  0.96874295  0.37680332  0.89739711    -0.56270
C503        C  0.94190296  0.34024354  0.67180717     0.03470
C504        C  0.93459254  0.37755249  0.64785094    -0.12680
C505        C  0.93406369  0.37869820  0.59835055     0.00970
C506        C  0.93985881  0.34166833  0.57270578    -0.11210
C507        C  0.94681729  0.30398564  0.59631496     0.03460
C508        C  0.94835831  0.30342859  0.64597152    -0.10630
H509        H  0.92901464  0.40574276  0.66792173     0.09060
H510        H  0.93930282  0.34223233  0.53437829     0.06580
H511        H  0.95428597  0.27452007  0.66436715     0.06430
C512        C  0.69485249  0.48519702  0.67467389     0.03470
C513        C  0.67820921  0.45086211  0.65197706    -0.12680
C514        C  0.67111650  0.45135864  0.60326728     0.00970
C515        C  0.67850981  0.48770390  0.57725002    -0.11210
C516        C  0.69363803  0.52307883  0.59967281     0.03460
C517        C  0.70250877  0.52141929  0.64807262    -0.10630
H518        H  0.67124327  0.42315017  0.67206492     0.09060
H519        H  0.67323922  0.48812703  0.53947441     0.06580
H520        H  0.71541924  0.04827842  0.66484842     0.06430
C521        C  0.93622253  0.20302311  0.52553996     0.03470
C522        C  0.92801352  0.23772835  0.55425973    -0.12680
C523        C  0.95500905  0.26615979  0.56857613     0.00970
C524        C  0.99006850  0.26002489  0.55404883    -0.11210
C525        C  0.49870184  0.22564243  0.52539548     0.03460
C526        C  0.97172027  0.19723726  0.51147773    -0.10630
H527        H  0.90080904  0.24288794  0.56513318     0.09060
H528        H  0.51054188  0.28253525  0.56478930     0.06580
H529        H  0.97836784  0.17079113  0.48919759     0.06430
O530        O  0.62572582  0.14946660  0.52013369    -0.57480
C531        C  0.53568821  0.22061175  0.50911987     0.75150
O532        O  0.63817165  0.28394966  0.47654764    -0.58630
C533        C  0.65818153  0.15171456  0.50868769     0.75130
C534        C  0.60288365  0.22418194  0.37596299     0.77520
Cd535      Cd  0.60828810  0.21550969  0.47754335     1.37460
O536        O  0.54581695  0.18891531  0.48581341    -0.57470
O537        O  0.58843744  0.19336192  0.39671763    -0.56280
C538        C  0.63457014  0.29117885  0.52026722     0.77480
O539        O  0.61979890  0.24994498  0.40210240    -0.58650
O540        O  0.55903288  0.24852702  0.51766223    -0.57110
O541        O  0.66654879  0.18186197  0.48213641    -0.57100
O542        O  0.62001833  0.26256391  0.54455260    -0.56270
C543        C  0.68539518  0.12185331  0.52584526     0.03470
C544        C  0.67622753  0.08720814  0.55414160    -0.12680
C545        C  0.70287269  0.06045560  0.57154099     0.00970
C546        C  0.73859783  0.06826235  0.56042775    -0.11210
C547        C  0.74807066  0.10204832  0.53128508     0.03460
C548        C  0.72138914  0.12874097  0.51438535    -0.10630
H549        H  0.64860131  0.08110152  0.56282984     0.09060
H550        H  0.75884524  0.04698896  0.57330883     0.06580
H551        H  0.72871409  0.15489574  0.49201519     0.06430
O552        O  0.87593378  0.17539688  0.52139205    -0.57480
C553        C  0.78536705  0.10733777  0.51594001     0.75150
O554        O  0.84696226  0.07416208  0.40312212    -0.58630
C555        C  0.90839591  0.17242407  0.50995958     0.75130
C556        C  0.88729804  0.03329945  0.51466649     0.77520
Cd557      Cd  0.85702436  0.10911358  0.47995797     1.37460
O558        O  0.79474746  0.13465380  0.48602116    -0.57470
O559        O  0.88636055  0.06600007  0.54015571    -0.56280
C560        C  0.85257406  0.10619424  0.37804773     0.77480
O561        O  0.87611613  0.03654589  0.47245430    -0.58650
O562        O  0.80954407  0.08345557  0.53093718    -0.57110
O563        O  0.91616394  0.14128133  0.48440563    -0.57100
O564        O  0.85956795  0.14004576  0.40003644    -0.56270
C565        C  0.65942254  0.41221417  0.57934562    -0.05780
C566        C  0.68233377  0.39438936  0.54615781    -0.16910
C567        C  0.67564119  0.35436719  0.52743657     0.11410
C568        C  0.64497835  0.33178795  0.54151318    -0.05710
C569        C  0.62194461  0.34973382  0.57445957    -0.16940
C570        C  0.62855184  0.38980494  0.59302784     0.11440
S571        S  0.70831479  0.33295273  0.48811629    -0.31910
S572        S  0.59612524  0.41095784  0.63295334    -0.31920
H573        H  0.60272828  0.45333491  0.62209197     0.29450
H574        H  0.70512334  0.29154347  0.50473926     0.29450
H575        H  0.70649643  0.41101929  0.53637480     0.20040
H576        H  0.59797587  0.33294057  0.58473094     0.20050
C577        C  0.92510220  0.41809624  0.57370152    -0.05780
C578        C  0.89601282  0.41756116  0.54200954    -0.16910
C579        C  0.88310967  0.45459114  0.52231951     0.11410
C580        C  0.90018471  0.99325761  0.53366242    -0.05710
C581        C  0.92969797  0.99378230  0.56464635    -0.16940
C582        C  0.94265660  0.45664846  0.58412777     0.11440
S583        S  0.84333027  0.45059604  0.48594093    -0.31910
S584        S  0.98237491  0.96060032  0.62092623    -0.31920
H585        H  0.99514211  0.42049310  0.60975581     0.29450
H586        H  0.82705919  0.48610795  0.50556263     0.29450
H587        H  0.88208210  0.38827047  0.53437089     0.20040
H588        H  0.94304056  0.02327660  0.57315295     0.20050
C589        C  0.94606292  0.34937470  0.82320835    -0.05780
C590        C  0.91331369  0.35232263  0.79897391    -0.16910
C591        C  0.91108092  0.34798295  0.74986238     0.11410
C592        C  0.94231131  0.34040221  0.72398587    -0.05710
C593        C  0.97505902  0.33676987  0.74813153    -0.16940
C594        C  0.97725649  0.34093517  0.79746459     0.11440
S595        S  0.86765092  0.35300940  0.72231963    -0.31910
S596        S  0.52028477  0.33407144  0.82538372    -0.31920
H597        H  0.50718754  0.31378284  0.86578733     0.29450
H598        H  0.87404952  0.32602960  0.68397327     0.29450
H599        H  0.88922246  0.35850955  0.81847524     0.20040
H600        H  0.99911036  0.33113990  0.72833473     0.20050
C601        C  0.70563108  0.48052046  0.82668281    -0.05780
C602        C  0.71758566  0.44684209  0.79910555    -0.16910
C603        C  0.71676993  0.44848473  0.74945805     0.11410
C604        C  0.70203068  0.48392803  0.72660564    -0.05710
C605        C  0.69219944  0.51847581  0.75419102    -0.16940
C606        C  0.69497911  0.51775077  0.80348140     0.11440
S607        S  0.73598914  0.40595875  0.71607996    -0.31910
S608        S  0.68540958  0.06594110  0.83408071    -0.31920
H609        H  0.71450844  0.06260491  0.86577611     0.29450
H610        H  0.74629476  0.38121744  0.75488900     0.29450
H611        H  0.72713403  0.41885901  0.81650572     0.20040
H612        H  0.68185941  0.04630478  0.73724686     0.20050
C613        C  0.65701757  0.08234625  0.04024767    -0.05780
C614        C  0.62403615  0.09862070  0.02561320    -0.16910
C615        C  0.61098319  0.13567865  0.04535737     0.11410
C616        C  0.63185073  0.15767217  0.07944868    -0.05710
C617        C  0.66491648  0.14159312  0.09368959    -0.16940
C618        C  0.67784823  0.10456283  0.07422727     0.11440
S619        S  0.56705210  0.15217648  0.02712931    -0.31910
S620        S  0.72196770  0.08874852  0.09222439    -0.31920
H621        H  0.73254114  0.07851358  0.04609176     0.29450
H622        H  0.55796730  0.17062863  0.07052579     0.29450
H623        H  0.60782051  0.08165710  0.99974655     0.20040
H624        H  0.68115812  0.15859612  0.11950999     0.20050
C625        C  0.60148933  0.22974412  0.32396849    -0.05780
C626        C  0.63015241  0.25088787  0.30258674    -0.16880
C627        C  0.63231734  0.25433641  0.25343978     0.11410
C628        C  0.60479636  0.23722931  0.22463388    -0.05710
C629        C  0.57560886  0.21715839  0.24574888    -0.16940
C630        C  0.57337841  0.21374808  0.29499487     0.11440
S631        S  0.67155148  0.27944067  0.22972146    -0.31910
S632        S  0.53352965  0.18998973  0.31839495    -0.31920
H633        H  0.53075816  0.21858835  0.35619351     0.29450
H634        H  0.67385447  0.25420895  0.18901804     0.29450
H635        H  0.65186637  0.26342324  0.32421433     0.20040
H636        H  0.55439740  0.20408729  0.22362621     0.20050
C637        C  0.90274073  0.24755438  0.03797483    -0.05780
C638        C  0.92824901  0.21712505  0.04822119    -0.16910
C639        C  0.91836047  0.17838141  0.06705313     0.11410
C640        C  0.88195143  0.16988441  0.07568425    -0.05710
C641        C  0.85632109  0.20026351  0.06498867    -0.16940
C642        C  0.86636362  0.23913711  0.04622693     0.11440
S643        S  0.95377804  0.14170321  0.07892908    -0.31910
S644        S  0.83176943  0.27669776  0.03424137    -0.31920
H645        H  0.85297623  0.31297401  0.04074354     0.29450
H646        H  0.93598506  0.11518989  0.11043955     0.29450
H647        H  0.95616169  0.22365532  0.04147768     0.20040
H648        H  0.82845744  0.19390457  0.07215176     0.20050
C649        C  0.85287151  0.10381550  0.32588477    -0.05780
C650        C  0.87989835  0.12575974  0.30245849    -0.16910
C651        C  0.88453596  0.12141322  0.25377494     0.11410
C652        C  0.86007143  0.09661289  0.22662418    -0.05710
C653        C  0.83287191  0.07471643  0.25017941    -0.16940
C654        C  0.82918387  0.07778124  0.29934252     0.11440
S655        S  0.92394651  0.14576875  0.22959302    -0.31910
S656        S  0.79302529  0.04881438  0.32571505    -0.31920
H657        H  0.78525593  0.07971177  0.35961069     0.29450
H658        H  0.93011384  0.11338377  0.19690091     0.29450
H659        H  0.89889718  0.14468808  0.32268876     0.20040
H660        H  0.81378534  0.05585210  0.23007048     0.20050
C661        C  0.86119459  0.59501317  0.17400109     0.03470
C662        C  0.85716103  0.55688841  0.14886493    -0.12680
C663        C  0.85965795  0.55616853  0.09925262     0.00970
C664        C  0.86708684  0.59337937  0.07487381    -0.11210
C665        C  0.87055158  0.63132194  0.09961324     0.03460
C666        C  0.86598739  0.63226303  0.14851410    -0.10630
H667        H  0.85204064  0.52791974  0.16764096     0.09060
H668        H  0.86978613  0.59290000  0.03675705     0.06580
H669        H  0.86762236  0.66213650  0.16691420     0.06430
C670        C  0.60728067  0.73659404  0.17264236     0.03470
C671        C  0.60220915  0.77292686  0.14553840    -0.12680
C672        C  0.60616939  0.77144753  0.09618710     0.00970
C673        C  0.61528909  0.73354654  0.07422548    -0.11210
C674        C  0.62029759  0.69724618  0.10132961     0.03460
C675        C  0.61611747  0.69898744  0.15035911    -0.10630
H676        H  0.59501135  0.80204289  0.16269082     0.09060
H677        H  0.61841026  0.73229418  0.03620076     0.06580
H678        H  0.62035069  0.67105684  0.17141378     0.06430
C679        C  0.86806000  0.95650466  0.02630900     0.03470
C680        C  0.87733702  0.99086657  0.05567045    -0.12680
C681        C  0.85075014  0.51785408  0.07203542     0.00970
C682        C  0.81507114  0.51052927  0.05900672    -0.11210
C683        C  0.80540434  0.97664618  0.02953172     0.03460
C684        C  0.83198037  0.94971407  0.01358977    -0.10630
H685        H  0.90498073  0.99694658  0.06527822     0.09060
H686        H  0.79492413  0.53208719  0.07106957     0.06580
H687        H  0.82451858  0.92357897  0.99076926     0.06430
O688        O  0.75721017  0.94005888  0.98882297    -0.57480
C689        C  0.64410150  0.90132785  0.00842431     0.75150
O690        O  0.66388898  0.53339323  0.97676525    -0.58630
C691        C  0.76790756  0.97112109  0.01358101     0.75130
C692        C  0.70264276  0.97498571  0.87867327     0.77520
Cd693      Cd  0.69494597  0.96602386  0.97995338     1.37460
O694        O  0.67607870  0.90053857  0.02317142    -0.57470
O695        O  0.71697413  0.94476804  0.90047687    -0.56280
C696        C  0.66875999  0.54217657  0.02008412     0.77480
O697        O  0.68460290  0.99953259  0.90368556    -0.58650
O698        O  0.63667763  0.93041224  0.97999090    -0.57110
O699        O  0.74477857  0.49810847  0.02341373    -0.57100
O700        O  0.68434433  0.51490127  0.04510785    -0.56270
C701        C  0.61640768  0.87087977  0.02368828     0.03470
C702        C  0.62488718  0.83644695  0.05266819    -0.12680
C703        C  0.59794421  0.80841666  0.06700925     0.00970
C704        C  0.56263810  0.81473074  0.05229172    -0.11210
C705        C  0.55369727  0.84892476  0.02354256     0.03460
C706        C  0.58067001  0.87685545  0.00951318    -0.10630
H707        H  0.65221393  0.83131161  0.06390923     0.09060
H708        H  0.54213796  0.79270914  0.06328153     0.06580
H709        H  0.57378682  0.90321703  0.98724346     0.06430
O710        O  0.50560556  0.88776427  0.98754741    -0.57480
C711        C  0.89511241  0.92689526  0.00881073     0.75150
O712        O  0.92227390  0.83678342  0.89943613    -0.58630
C713        C  0.51632757  0.85456359  0.00762482     0.75130
C714        C  0.91521762  0.78697747  0.01753365     0.77520
Cd715      Cd  0.94312838  0.86185104  0.97674163     1.37470
O716        O  0.92743154  0.92757655  0.02227891    -0.57470
O717        O  0.93109951  0.81454544  0.04261231    -0.56280
C718        C  0.94599369  0.85443491  0.87505736     0.77480
O719        O  0.91167510  0.79424208  0.97383158    -0.58650
O720        O  0.88655657  0.89838636  0.97969625    -0.57110
O721        O  0.99325989  0.82586950  0.01334832    -0.57100
O722        O  0.96874753  0.87679516  0.89739783    -0.56270
C723        C  0.94191717  0.84025747  0.67179766     0.03470
C724        C  0.93466368  0.87757432  0.64782515    -0.12680
C725        C  0.93415922  0.87871008  0.59832354     0.00970
C726        C  0.93992038  0.84166235  0.57269655    -0.11210
C727        C  0.94681040  0.80397032  0.59632115     0.03460
C728        C  0.94832996  0.80342220  0.64597814    -0.10630
H729        H  0.92910770  0.90577704  0.66788477     0.09060
H730        H  0.93938712  0.84221746  0.53436858     0.06580
H731        H  0.95421428  0.77450748  0.66438622     0.06430
C732        C  0.69488207  0.98517164  0.67465637     0.03470
C733        C  0.67823050  0.95084235  0.65195858    -0.12680
C734        C  0.67114318  0.95133914  0.60324727     0.00970
C735        C  0.67855362  0.98767917  0.57722856    -0.11210
C736        C  0.69369186  0.02304839  0.59965168     0.03460
C737        C  0.70255495  0.02138824  0.64805366    -0.10630
H738        H  0.67125193  0.92313538  0.67204752     0.09060
H739        H  0.67328551  0.98810358  0.53945244     0.06580
H740        H  0.71536828  0.54831325  0.66486591     0.06430
C741        C  0.93617898  0.70300113  0.52555877     0.03470
C742        C  0.92798114  0.73770412  0.55429060    -0.12680
C743        C  0.95498375  0.76613193  0.56859502     0.00970
C744        C  0.99003591  0.75999599  0.55404542    -0.11210
C745        C  0.49865809  0.72561778  0.52538257     0.03460
C746        C  0.97167229  0.69721405  0.51147665    -0.10630
H747        H  0.90078018  0.74286773  0.56517630     0.09060
H748        H  0.51051307  0.78250590  0.56477459     0.06580
H749        H  0.97831229  0.67077144  0.48918694     0.06430
O750        O  0.62566280  0.64948202  0.52012456    -0.57480
C751        C  0.53563878  0.72059581  0.50908761     0.75150
O752        O  0.63813394  0.78394464  0.47652335    -0.58630
C753        C  0.65811663  0.65172112  0.50866964     0.75130
C754        C  0.60283488  0.72418859  0.37593276     0.77520
Cd755      Cd  0.60823307  0.71551333  0.47751103     1.37460
O756        O  0.54576891  0.68889811  0.48578499    -0.57470
O757        O  0.58839343  0.69336277  0.39668236    -0.56280
C758        C  0.63452504  0.79117997  0.52024028     0.77480
O759        O  0.61973912  0.74995756  0.40207675    -0.58650
O760        O  0.55897785  0.74852142  0.51761347    -0.57110
O761        O  0.66648392  0.68185577  0.48210018    -0.57100
O762        O  0.61995582  0.76257461  0.54452148    -0.56270
C763        C  0.68532970  0.62186676  0.52583934     0.03470
C764        C  0.67616437  0.58722779  0.55414682    -0.12680
C765        C  0.70281282  0.56048602  0.57155937     0.00970
C766        C  0.73853742  0.56829871  0.56044961    -0.11210
C767        C  0.74800627  0.60207760  0.53129513     0.03460
C768        C  0.72132269  0.62875821  0.51438090    -0.10630
H769        H  0.64853815  0.58111739  0.56283213     0.09060
H770        H  0.75878744  0.54703265  0.57333920     0.06580
H771        H  0.72864589  0.65490780  0.49200208     0.06430
O772        O  0.87588268  0.67539749  0.52140474    -0.57480
C773        C  0.78530087  0.60736819  0.51594950     0.75150
O774        O  0.84698097  0.57415071  0.40312550    -0.58630
C775        C  0.90834495  0.67241038  0.50997818     0.75130
C776        C  0.88716412  0.53328428  0.51471302     0.77520
Cd777      Cd  0.85695451  0.60912114  0.47996866     1.37460
O778        O  0.79467372  0.63465295  0.48599080    -0.57470
O779        O  0.88631501  0.56602018  0.54015377    -0.56280
C780        C  0.85254214  0.60619627  0.37805354     0.77480
O781        O  0.87592254  0.53650101  0.47252461    -0.58650
O782        O  0.80948410  0.58351458  0.53098603    -0.57110
O783        O  0.91610574  0.64126243  0.48442723    -0.57100
O784        O  0.85947329  0.64006311  0.40004462    -0.56270
C785        C  0.65943221  0.91220032  0.57932632    -0.05780
C786        C  0.68233606  0.89436017  0.54614012    -0.16910
C787        C  0.67562460  0.85434280  0.52741653     0.11410
C788        C  0.64494931  0.83178404  0.54148770    -0.05710
C789        C  0.62192291  0.84974516  0.57443289    -0.16940
C790        C  0.62854955  0.88981158  0.59300439     0.11440
S791        S  0.70829099  0.83290655  0.48810084    -0.31910
S792        S  0.59613158  0.91098577  0.63292799    -0.31920
H793        H  0.60275520  0.95335881  0.62206768     0.29450
H794        H  0.70508220  0.79150064  0.50472906     0.29450
H795        H  0.70650739  0.91097379  0.53636001     0.20040
H796        H  0.59794548  0.83296788  0.58470131     0.20050
C797        C  0.92523409  0.91811009  0.57365071    -0.05780
C798        C  0.89618653  0.91757228  0.54189037    -0.16910
C799        C  0.88329680  0.95460085  0.52218470     0.11410
C800        C  0.90003268  0.49324246  0.53373333    -0.05710
C801        C  0.92957757  0.49376318  0.56466345    -0.16940
C802        C  0.94277073  0.95666597  0.58411706     0.11440
S803        S  0.84357234  0.95059404  0.48570129    -0.31910
S804        S  0.98229070  0.46057981  0.62087983    -0.31920
H805        H  0.99523606  0.92051385  0.60982100     0.29450
H806        H  0.82724436  0.98607015  0.50531944     0.29450
H807        H  0.88227148  0.88827967  0.53421099     0.20040
H808        H  0.94294245  0.52325271  0.57312885     0.20050
C809        C  0.94605459  0.84940515  0.82319891    -0.05780
C810        C  0.91331459  0.85240444  0.79895188    -0.16910
C811        C  0.91108772  0.84806459  0.74983974     0.11410
C812        C  0.94231436  0.84042963  0.72397628    -0.05710
C813        C  0.97505250  0.83674974  0.74813439    -0.16940
C814        C  0.97724409  0.84091643  0.79746747     0.11440
S815        S  0.86767071  0.85316000  0.72227930    -0.31910
S816        S  0.52025863  0.83398966  0.82540277    -0.31920
H817        H  0.50713148  0.81371869  0.86580030     0.29450
H818        H  0.87404523  0.82616525  0.68393856     0.29450
H819        H  0.88922653  0.85863028  0.81844393     0.20040
H820        H  0.99910138  0.83107931  0.72834733     0.20050
C821        C  0.70563406  0.98050839  0.82666933    -0.05780
C822        C  0.71758430  0.94682253  0.79910005    -0.16910
C823        C  0.71677581  0.94845921  0.74945219     0.11410
C824        C  0.70204964  0.98390527  0.72659067    -0.05710
C825        C  0.69222178  0.01845940  0.75416846    -0.16940
C826        C  0.69499320  0.01773904  0.80345978     0.11440
S827        S  0.73598743  0.90592148  0.71608532    -0.31910
S828        S  0.68539061  0.56594685  0.83411144    -0.31920
H829        H  0.71449487  0.56261506  0.86579878     0.29450
H830        H  0.74627976  0.88118019  0.75490050     0.29450
H831        H  0.72712359  0.91883833  0.81650674     0.20040
H832        H  0.68182768  0.54631964  0.73727642     0.20050
C833        C  0.65702589  0.58234542  0.04024296    -0.05780
C834        C  0.62404416  0.59861670  0.02560499    -0.16910
C835        C  0.61099005  0.63567675  0.04534245     0.11410
C836        C  0.63185685  0.65767564  0.07943001    -0.05710
C837        C  0.66492315  0.64160011  0.09367399    -0.16940
C838        C  0.67785603  0.60456755  0.07421846     0.11440
S839        S  0.56705840  0.65217020  0.02711139    -0.31910
S840        S  0.72197570  0.58875679  0.09221921    -0.31920
H841        H  0.73254928  0.57851216  0.04608932     0.29450
H842        H  0.55797205  0.67062574  0.07050544     0.29450
H843        H  0.60782907  0.58164891  0.99974119     0.20040
H844        H  0.68116381  0.65860699  0.11949221     0.20050
C845        C  0.60144940  0.72975000  0.32393877    -0.05780
C846        C  0.63011657  0.75089334  0.30256620    -0.16880
C847        C  0.63229134  0.75433928  0.25342025     0.11410
C848        C  0.60477604  0.73723029  0.22460639    -0.05710
C849        C  0.57558437  0.71715992  0.24571204    -0.16940
C850        C  0.57334437  0.71375170  0.29495710     0.11440
S851        S  0.67153015  0.77944289  0.22971408    -0.31910
S852        S  0.53349170  0.68999312  0.31834559    -0.31920
H853        H  0.53071568  0.71858843  0.35614657     0.29450
H854        H  0.67384026  0.75421127  0.18901152     0.29450
H855        H  0.65182624  0.76342984  0.32420063     0.20040
H856        H  0.55437726  0.70408772  0.22358284     0.20050
C857        C  0.90273806  0.74755092  0.03796104    -0.05780
C858        C  0.92824587  0.71711798  0.04819516    -0.16910
C859        C  0.91835864  0.67837755  0.06703655     0.11410
C860        C  0.88195152  0.66988578  0.07568563    -0.05710
C861        C  0.85632135  0.70026773  0.06499995    -0.16940
C862        C  0.86636255  0.73913922  0.04623133     0.11440
S863        S  0.95377399  0.64169474  0.07890240    -0.31910
S864        S  0.83176790  0.77670101  0.03425235    -0.31920
H865        H  0.85297772  0.81297754  0.04073212     0.29450
H866        H  0.93599774  0.61523034  0.11048109     0.29450
H867        H  0.95615728  0.72364431  0.04143880     0.20040
H868        H  0.82845901  0.69391210  0.07217454     0.20050
C869        C  0.85284919  0.60381838  0.32589114    -0.05780
C870        C  0.87986454  0.62578645  0.30247019    -0.16910
C871        C  0.88451173  0.62144143  0.25378765     0.11410
C872        C  0.86006486  0.59662046  0.22663150    -0.05710
C873        C  0.83287611  0.57470135  0.25018292    -0.16940
C874        C  0.82918199  0.57776192  0.29934539     0.11440
S875        S  0.92391478  0.64582307  0.22961680    -0.31910
S876        S  0.79304285  0.54875772  0.32571379    -0.31920
H877        H  0.78525571  0.57963784  0.35962148     0.29450
H878        H  0.93010566  0.61343854  0.19693284     0.29450
H879        H  0.89884870  0.64473144  0.32270489     0.20040
H880        H  0.81380280  0.55582028  0.23007200     0.20050
loop_ 
_geom_bond_atom_site_label_1 
_geom_bond_atom_site_label_2 
_geom_bond_distance 
_geom_bond_site_symmetry_2 
_ccdc_geom_bond_type 
C1            C2   1.411       .  A
C1            C6   1.402       .  A
C1          C212   1.490       .  S
C2            C3   1.407       .  A
C2            H7   1.083       .  S
C3            C4   1.401       .  A
C3           C21   1.473       .  S
C4            C5   1.398       .  A
C4            H8   1.084       .  S
C5            C6   1.396       .  A
C5          C200   1.468       .  S
C6            H9   1.084       .  S
C10          C11   1.405       .  A
C10          C15   1.397       .  A
C10         C188   1.474       .  S
C11          C12   1.406       .  A
C11          H16   1.084       .  S
C12          C13   1.404       .  A
C12          C43   1.474       .  S
C13          C14   1.404       .  A
C13          H17   1.084       .  S
C14          C15   1.398       .  A
C14         C176   1.475       .  S
C15          H18   1.085       .  S
C19          C20   1.409       .  A
C19          C24   1.409       .  A
C19          C51   1.482       .  S
C20         C241   1.406       .  A
C20          H25   1.083       .  S
C21          C22   1.400       .  A
C21         C240   1.406   1_545  A
C22         C243   1.402   1_545  A
C22          H26   1.085       .  S
C23          C24   1.401       .  A
C23         C242   1.402       .  A
C23          C31   1.479       .  S
C24          H27   1.083   1_554  S
O28          C31   1.268   1_556  A
O28         Cd33   2.496       .  S
C29          C41   1.483       .  S
C29          O38   1.261   1_554  A
C29          O34   1.265       .  A
O30          C36   1.266   1_556  A
O30        Cd253   2.456   1_545  S
C31         O259   1.262       .  A
C32         C161   1.487       .  S
C32          O37   1.261       .  A
C32          O35   1.267       .  A
Cd33         O38   2.450       .  S
Cd33         O34   2.522   1_556  S
Cd33         O37   2.439       .  S
Cd33         O35   2.498       .  S
Cd33        O250   2.456       .  S
Cd33        O260   2.447   1_556  S
Cd33        O259   2.435   1_556  S
C36         C173   1.473       .  S
C36          O40   1.266       .  A
O39         C251   1.262       .  A
O39        Cd253   2.435   1_554  S
O40        Cd253   2.447   1_544  S
C41          C42   1.409       .  A
C41          C46   1.409       .  A
C42          C43   1.406       .  A
C42          H47   1.083       .  S
C43          C44   1.399       .  A
C44          C45   1.403       .  A
C44          H48   1.084       .  S
C45          C46   1.402       .  A
C45          C53   1.479       .  S
C46          H49   1.084   1_554  S
O50          C53   1.270   1_556  A
O50        Cd495   2.489   1_455  S
C51          O60   1.259   1_554  A
C51          O56   1.265       .  A
O52          C58   1.261       .  A
O52         Cd55   2.440       .  S
C53         O501   1.264   1_455  A
C54         C197   1.460       .  S
C54          O59   1.264   1_554  A
C54          O57   1.265       .  A
Cd55         O62   2.498       .  S
Cd55         O61   2.435   1_556  S
Cd55         O60   2.434       .  S
Cd55         O56   2.533   1_556  S
Cd55         O59   2.445       .  S
Cd55         O57   2.445   1_556  S
Cd55        O490   2.489       .  S
C58         C149   1.474       .  S
C58          O62   1.266       .  A
O61         C493   1.264       .  A
C63          C64   1.399       .  A
C63          C68   1.405       .  A
C63         C152   1.475       .  S
C64          C65   1.400       .  A
C64          H69   1.085       .  S
C65          C66   1.403       .  A
C65         C137   1.479       .  S
C66          C67   1.402       .  A
C66          H70   1.084       .  S
C67          C68   1.405       .  A
C67          C83   1.473       .  S
C68          H71   1.084       .  S
C72          C73   1.402       .  A
C72          C77   1.409       .  A
C72         C164   1.490       .  S
C73          C74   1.399       .  A
C73          H78   1.083       .  S
C74          C75   1.402       .  A
C74         C125   1.476       .  S
C75          C76   1.402       .  A
C75          H79   1.084       .  S
C76          C77   1.405       .  A
C76         C325   1.476       .  S
C77         H300   1.083       .  S
H80         C297   1.083       .  S
C81          C82   1.409       .  A
C81          C86   1.408       .  A
C81         C115   1.481       .  S
C82          C83   1.405       .  A
C82          H87   1.084       .  S
C83          C84   1.398       .  A
C84         C525   1.403       .  A
C84         H528   1.084       .  S
C85         C524   1.403       .  A
C85         C526   1.401       .  A
C85          C91   1.477   1_655  S
C86         C525   1.401       .  A
C86          H89   1.084       .  S
H88         C524   1.084   1_455  S
O90          C93   1.265       .  A
O90         Cd95   2.518       .  S
C91         O100   1.261       .  A
C91          O96   1.268       .  A
O92          C98   1.266       .  A
O92         Cd95   2.441       .  S
C93         C103   1.482       .  S
C93         O101   1.261       .  A
C94         C185   1.482       .  S
C94          O99   1.262       .  A
C94          O97   1.266       .  A
Cd95        O102   2.443       .  S
Cd95        O101   2.447       .  S
Cd95        O100   2.428       .  S
Cd95         O96   2.496       .  S
Cd95         O99   2.444       .  S
Cd95         O97   2.491       .  S
C98         C128   1.471       .  S
C98         O102   1.267       .  A
C103        C104   1.408       .  A
C103        C108   1.407       .  A
C104        C105   1.406       .  A
C104        H109   1.083       .  S
C105        C106   1.400       .  A
C105        C296   1.476       .  S
C106        C107   1.404       .  A
C106        H110   1.084       .  S
C107        C108   1.401       .  A
C107        C113   1.478       .  S
C108        H111   1.084       .  S
O112        C115   1.268       .  A
O112       Cd117   2.502       .  S
C113        O122   1.261       .  A
C113        O118   1.267       .  A
O114        C120   1.263       .  A
O114       Cd117   2.460       .  S
C115        O123   1.264       .  A
C116        C140   1.471   1_545  S
C116        O121   1.265       .  A
C116        O119   1.266       .  A
Cd117       O124   2.472       .  S
Cd117       O123   2.434       .  S
Cd117       O122   2.442       .  S
Cd117       O118   2.490       .  S
Cd117       O121   2.438       .  S
Cd117       O119   2.450       .  S
C120        C209   1.477       .  S
C120        O124   1.266       .  A
C125        C126   1.404       .  A
C125        C130   1.412       .  A
C126        C127   1.398       .  A
C126        H135   1.084       .  S
C127        C128   1.412       .  A
C127        S131   1.803       .  S
C128        C129   1.403       .  A
C129        C130   1.397       .  A
C129        H136   1.084       .  S
C130        S132   1.805       .  S
S131        H134   1.407       .  S
S132        H133   1.406       .  S
C137        C138   1.402       .  A
C137        C142   1.415       .  A
C138        C139   1.396       .  A
C138        H147   1.084       .  S
C139        C360   1.413       .  A
C139        S143   1.803       .  S
C140        C141   1.402       .  A
C140        C359   1.413       .  A
C141        C362   1.398       .  A
C141        H148   1.084   1_565  S
C142        C361   1.398       .  A
C142        S364   1.805       .  S
S143        H146   1.407       .  S
S144        C362   1.805       .  S
S144        H365   1.407       .  S
H145        S364   1.407       .  S
C149        C150   1.403       .  A
C149        C154   1.414       .  A
C150        C151   1.396       .  A
C150        H159   1.084       .  S
C151        C152   1.412       .  A
C151        S155   1.805       .  S
C152        C153   1.403       .  A
C153        C154   1.402       .  A
C153        H160   1.084       .  S
C154        S596   1.803       .  S
S155        H158   1.406       .  S
S156        C594   1.803   1_455  S
S156        H157   1.407       .  S
C161        C162   1.405       .  A
C161        C166   1.417       .  A
C162        C163   1.405       .  A
C162        H171   1.083       .  S
C163        C164   1.418       .  A
C163        S167   1.810       .  S
C164        C165   1.402       .  A
C165        C166   1.397       .  A
C165        H392   1.084       .  S
C166        S388   1.802       .  S
S167        H170   1.407       .  S
S168        C386   1.802       .  S
S168        H169   1.408       .  S
H172        C385   1.084       .  S
C173        C174   1.405       .  A
C173        C178   1.413       .  A
C174        C175   1.401       .  A
C174        H183   1.084   1_554  S
C175        C176   1.412       .  A
C175        S179   1.804       .  S
C176        C177   1.402       .  A
C177        C178   1.395       .  A
C177        H184   1.084       .  S
C178        S180   1.802       .  S
S179        H182   1.406       .  S
S180        H181   1.407       .  S
C185        C186   1.407       .  A
C185        C190   1.415       .  A
C186        C187   1.398       .  A
C186        H195   1.083       .  S
C187        C188   1.409       .  A
C187        S191   1.805       .  S
C188        C189   1.403       .  A
C189        C190   1.401       .  A
C189        H196   1.084       .  S
C190        S192   1.802       .  S
S191        H194   1.405       .  S
S192        H193   1.407       .  S
C197        C198   1.399       .  A
C197        C202   1.410       .  A
C198        C199   1.395       .  A
C198        H207   1.084       .  S
C199        C200   1.413       .  A
C199        S203   1.809       .  S
C200        C201   1.403       .  A
C201        C202   1.399       .  A
C201        H208   1.084       .  S
C202        S204   1.805       .  S
S203        H206   1.401       .  S
S204        H205   1.406       .  S
C209        C210   1.400       .  A
C209        C214   1.414       .  A
C210        C211   1.396       .  A
C210        H219   1.084       .  S
C211        C212   1.419       .  A
C211        S215   1.805       .  S
C212        C213   1.406       .  A
C213        C214   1.402       .  A
C213        H220   1.083       .  S
C214        S216   1.803       .  S
S215        H218   1.406       .  S
S216        H217   1.407       .  S
C221        C222   1.411       .  A
C221        C226   1.402       .  A
C221        C432   1.490       .  S
C222        C223   1.407       .  A
C222        H227   1.083       .  S
C223        C224   1.401       .  A
C223        C241   1.473       .  S
C224        C225   1.398       .  A
C224        H228   1.084       .  S
C225        C226   1.396       .  A
C225        C420   1.468       .  S
C226        H229   1.084       .  S
C230        C231   1.405       .  A
C230        C235   1.397       .  A
C230        C408   1.474       .  S
C231        C232   1.406       .  A
C231        H236   1.084       .  S
C232        C233   1.404       .  A
C232        C263   1.474       .  S
C233        C234   1.404       .  A
C233        H237   1.084       .  S
C234        C235   1.398       .  A
C234        C396   1.475       .  S
C235        H238   1.085       .  S
C239        C240   1.409       .  A
C239        C244   1.409       .  A
C239        C271   1.482       .  S
C240        H245   1.083       .  S
C241        C242   1.400       .  A
C242        H246   1.085       .  S
C243        C244   1.401       .  A
C243        C251   1.479       .  S
C244        H247   1.083   1_554  S
O248        C251   1.268   1_556  A
O248       Cd253   2.496       .  S
C249        C261   1.483       .  S
C249        O258   1.261   1_554  A
C249        O254   1.265       .  A
O250        C256   1.266   1_556  A
C252        C381   1.487       .  S
C252        O257   1.261       .  A
C252        O255   1.267       .  A
Cd253       O258   2.450       .  S
Cd253       O254   2.522   1_556  S
Cd253       O257   2.439       .  S
Cd253       O255   2.498       .  S
C256        C393   1.473       .  S
C256        O260   1.266       .  A
C261        C262   1.409       .  A
C261        C266   1.409       .  A
C262        C263   1.406       .  A
C262        H267   1.083       .  S
C263        C264   1.399       .  A
C264        C265   1.403       .  A
C264        H268   1.084       .  S
C265        C266   1.402       .  A
C265        C273   1.479       .  S
C266        H269   1.084   1_554  S
O270        C273   1.270   1_556  A
O270       Cd715   2.489   1_455  S
C271        O280   1.259   1_554  A
C271        O276   1.265       .  A
O272        C278   1.261       .  A
O272       Cd275   2.440       .  S
C273        O721   1.264   1_455  A
C274        C417   1.460       .  S
C274        O279   1.264   1_554  A
C274        O277   1.265       .  A
Cd275       O710   2.489       .  S
Cd275       O282   2.498       .  S
Cd275       O281   2.435   1_556  S
Cd275       O280   2.434       .  S
Cd275       O276   2.533   1_556  S
Cd275       O279   2.445       .  S
Cd275       O277   2.445   1_556  S
C278        C369   1.474       .  S
C278        O282   1.266       .  A
O281        C713   1.264       .  A
C283        C284   1.399       .  A
C283        C288   1.405       .  A
C283        C372   1.475       .  S
C284        C285   1.400       .  A
C284        H289   1.085       .  S
C285        C286   1.403       .  A
C285        C357   1.479       .  S
C286        C287   1.402       .  A
C286        H290   1.084       .  S
C287        C288   1.405       .  A
C287        C303   1.473       .  S
C288        H291   1.084       .  S
C292        C293   1.402       .  A
C292        C297   1.409   1_565  A
C292        C384   1.490       .  S
C293        C294   1.399       .  A
C293        H298   1.083       .  S
C294        C295   1.402       .  A
C294        C345   1.476       .  S
C295        C296   1.402   1_565  A
C295        H299   1.084       .  S
C296        C297   1.405       .  A
C301        C302   1.409       .  A
C301        C306   1.408       .  A
C301        C335   1.481       .  S
C302        C303   1.405       .  A
C302        H307   1.084       .  S
C303        C304   1.398       .  A
C304        C745   1.403       .  A
C304        H748   1.084       .  S
C305        C744   1.403       .  A
C305        C746   1.401       .  A
C305        C311   1.477   1_655  S
C306        C745   1.401       .  A
C306        H309   1.084       .  S
H308        C744   1.084   1_455  S
O310        C313   1.265       .  A
O310       Cd315   2.518       .  S
C311        O320   1.261       .  A
C311        O316   1.268       .  A
O312        C318   1.266       .  A
O312       Cd315   2.441       .  S
C313        C323   1.482       .  S
C313        O321   1.261       .  A
C314        C405   1.482       .  S
C314        O319   1.262       .  A
C314        O317   1.266       .  A
Cd315       O322   2.444       .  S
Cd315       O321   2.447       .  S
Cd315       O320   2.428       .  S
Cd315       O316   2.496       .  S
Cd315       O319   2.444       .  S
Cd315       O317   2.491       .  S
C318        C348   1.471       .  S
C318        O322   1.267       .  A
C323        C324   1.408       .  A
C323        C328   1.407       .  A
C324        C325   1.406       .  A
C324        H329   1.083       .  S
C325        C326   1.400       .  A
C326        C327   1.404       .  A
C326        H330   1.084       .  S
C327        C328   1.401       .  A
C327        C333   1.478       .  S
C328        H331   1.084       .  S
O332        C335   1.268       .  A
O332       Cd337   2.502       .  S
C333        O342   1.261       .  A
C333        O338   1.267       .  A
O334        C340   1.263       .  A
O334       Cd337   2.460       .  S
C335        O343   1.264       .  A
C336        C360   1.471       .  S
C336        O341   1.265       .  A
C336        O339   1.266       .  A
Cd337       O344   2.472       .  S
Cd337       O343   2.434       .  S
Cd337       O342   2.441       .  S
Cd337       O338   2.490       .  S
Cd337       O341   2.438       .  S
Cd337       O339   2.450       .  S
C340        C429   1.477       .  S
C340        O344   1.266       .  A
C345        C346   1.404       .  A
C345        C350   1.412       .  A
C346        C347   1.398       .  A
C346        H355   1.084       .  S
C347        C348   1.412       .  A
C347        S351   1.803       .  S
C348        C349   1.403       .  A
C349        C350   1.397       .  A
C349        H356   1.084       .  S
C350        S352   1.805       .  S
S351        H354   1.407       .  S
S352        H353   1.406       .  S
C357        C358   1.402       .  A
C357        C362   1.415       .  A
C358        C359   1.396       .  A
C358        H367   1.084       .  S
C359        S363   1.803       .  S
C360        C361   1.402       .  A
C361        H368   1.084       .  S
S363        H366   1.407       .  S
C369        C370   1.403       .  A
C369        C374   1.414       .  A
C370        C371   1.396       .  A
C370        H379   1.084       .  S
C371        C372   1.412       .  A
C371        S375   1.805       .  S
C372        C373   1.403       .  A
C373        C374   1.402       .  A
C373        H380   1.084       .  S
C374        S816   1.803       .  S
S375        H378   1.406       .  S
S376        C814   1.803   1_455  S
S376        H377   1.407       .  S
C381        C382   1.405       .  A
C381        C386   1.417   1_565  A
C382        C383   1.405       .  A
C382        H391   1.083       .  S
C383        C384   1.418       .  A
C383        S387   1.810       .  S
C384        C385   1.402   1_565  A
C385        C386   1.397       .  A
S387        H390   1.407       .  S
S388        H389   1.408       .  S
C393        C394   1.405       .  A
C393        C398   1.413       .  A
C394        C395   1.401       .  A
C394        H403   1.084   1_554  S
C395        C396   1.412       .  A
C395        S399   1.804       .  S
C396        C397   1.402       .  A
C397        C398   1.395       .  A
C397        H404   1.084       .  S
C398        S400   1.803       .  S
S399        H402   1.406       .  S
S400        H401   1.407       .  S
C405        C406   1.407       .  A
C405        C410   1.415       .  A
C406        C407   1.398       .  A
C406        H415   1.083       .  S
C407        C408   1.409       .  A
C407        S411   1.805       .  S
C408        C409   1.403       .  A
C409        C410   1.401       .  A
C409        H416   1.084       .  S
C410        S412   1.802       .  S
S411        H414   1.405       .  S
S412        H413   1.407       .  S
C417        C418   1.399       .  A
C417        C422   1.410       .  A
C418        C419   1.395       .  A
C418        H427   1.084       .  S
C419        C420   1.413       .  A
C419        S423   1.808       .  S
C420        C421   1.403       .  A
C421        C422   1.399       .  A
C421        H428   1.084       .  S
C422        S424   1.805       .  S
S423        H426   1.401       .  S
S424        H425   1.406       .  S
C429        C430   1.400       .  A
C429        C434   1.414       .  A
C430        C431   1.396       .  A
C430        H439   1.084       .  S
C431        C432   1.419       .  A
C431        S435   1.805       .  S
C432        C433   1.406       .  A
C433        C434   1.402       .  A
C433        H440   1.083       .  S
C434        S436   1.803       .  S
S435        H438   1.406       .  S
S436        H437   1.407       .  S
C441        C442   1.411       .  A
C441        C446   1.402       .  A
C441        C652   1.490       .  S
C442        C443   1.407       .  A
C442        H447   1.083       .  S
C443        C444   1.401       .  A
C443        C461   1.473       .  S
C444        C445   1.398       .  A
C444        H448   1.084       .  S
C445        C446   1.396       .  A
C445        C640   1.468       .  S
C446        H449   1.084       .  S
C450        C451   1.405       .  A
C450        C455   1.397       .  A
C450        C628   1.474       .  S
C451        C452   1.406       .  A
C451        H456   1.084       .  S
C452        C453   1.404       .  A
C452        C483   1.474       .  S
C453        C454   1.404       .  A
C453        H457   1.084       .  S
C454        C455   1.398       .  A
C454        C616   1.475       .  S
C455        H458   1.085       .  S
C459        C460   1.409       .  A
C459        C464   1.409       .  A
C459        C491   1.482       .  S
C460        C681   1.406       .  A
C460        H465   1.083       .  S
C461        C680   1.406   1_545  A
C461        C462   1.400       .  A
C462        C683   1.402   1_545  A
C462        H466   1.085       .  S
C463        C682   1.402       .  A
C463        C464   1.401       .  A
C463        C471   1.479       .  S
C464        H467   1.083   1_554  S
O468        C471   1.268   1_556  A
O468       Cd473   2.496       .  S
C469        C481   1.483       .  S
C469        O478   1.261   1_554  A
C469        O474   1.265       .  A
O470        C476   1.266   1_556  A
O470       Cd693   2.456   1_545  S
C471        O699   1.262       .  A
C472        C601   1.487       .  S
C472        O477   1.261       .  A
C472        O475   1.267       .  A
Cd473       O690   2.456       .  S
Cd473       O700   2.447   1_556  S
Cd473       O699   2.435   1_556  S
Cd473       O478   2.450       .  S
Cd473       O474   2.522   1_556  S
Cd473       O477   2.439       .  S
Cd473       O475   2.498       .  S
C476        C613   1.473       .  S
C476        O480   1.266       .  A
O479        C691   1.262       .  A
O479       Cd693   2.435   1_554  S
O480       Cd693   2.447   1_544  S
C481        C482   1.409       .  A
C481        C486   1.409       .  A
C482        C483   1.406       .  A
C482        H487   1.083       .  S
C483        C484   1.399       .  A
C484        C485   1.403       .  A
C484        H488   1.084       .  S
C485        C486   1.402       .  A
C485        C493   1.479       .  S
C486        H489   1.084   1_554  S
O490        C493   1.270   1_556  A
C491        O500   1.259   1_554  A
C491        O496   1.265       .  A
O492        C498   1.261       .  A
O492       Cd495   2.440       .  S
C494        C637   1.460       .  S
C494        O499   1.264   1_554  A
C494        O497   1.265       .  A
Cd495       O502   2.498       .  S
Cd495       O501   2.435   1_556  S
Cd495       O500   2.434       .  S
Cd495       O496   2.533   1_556  S
Cd495       O499   2.445       .  S
Cd495       O497   2.445   1_556  S
C498        C589   1.474       .  S
C498        O502   1.266       .  A
C503        C504   1.399       .  A
C503        C508   1.405       .  A
C503        C592   1.475       .  S
C504        C505   1.400       .  A
C504        H509   1.085       .  S
C505        C506   1.403       .  A
C505        C577   1.479       .  S
C506        C507   1.402       .  A
C506        H510   1.084       .  S
C507        C508   1.405       .  A
C507        C523   1.473       .  S
C508        H511   1.084       .  S
C512        C513   1.402       .  A
C512        C517   1.409       .  A
C512        C604   1.490       .  S
C513        C514   1.399       .  A
C513        H518   1.083       .  S
C514        C515   1.402       .  A
C514        C565   1.476       .  S
C515        C516   1.402       .  A
C515        H519   1.084       .  S
C516        C517   1.405       .  A
C516        C765   1.476       .  S
C517        H740   1.083       .  S
H520        C737   1.083       .  S
C521        C522   1.409       .  A
C521        C526   1.408       .  A
C521        C555   1.481       .  S
C522        C523   1.405       .  A
C522        H527   1.084       .  S
C523        C524   1.398       .  A
C525        C531   1.477       .  S
C526        H529   1.084       .  S
O530        C533   1.265       .  A
O530       Cd535   2.518       .  S
C531        O540   1.261       .  A
C531        O536   1.268       .  A
O532        C538   1.266       .  A
O532       Cd535   2.441       .  S
C533        C543   1.482       .  S
C533        O541   1.261       .  A
C534        C625   1.482       .  S
C534        O539   1.262       .  A
C534        O537   1.266       .  A
Cd535       O542   2.443       .  S
Cd535       O541   2.447       .  S
Cd535       O540   2.428       .  S
Cd535       O536   2.496       .  S
Cd535       O539   2.444       .  S
Cd535       O537   2.491       .  S
C538        C568   1.471       .  S
C538        O542   1.267       .  A
C543        C544   1.408       .  A
C543        C548   1.407       .  A
C544        C545   1.406       .  A
C544        H549   1.083       .  S
C545        C546   1.400       .  A
C545        C736   1.476       .  S
C546        C547   1.404       .  A
C546        H550   1.084       .  S
C547        C548   1.401       .  A
C547        C553   1.478       .  S
C548        H551   1.084       .  S
O552        C555   1.268       .  A
O552       Cd557   2.502       .  S
C553        O562   1.261       .  A
C553        O558   1.267       .  A
O554        C560   1.263       .  A
O554       Cd557   2.460       .  S
C555        O563   1.264       .  A
C556        C580   1.471   1_545  S
C556        O561   1.265       .  A
C556        O559   1.266       .  A
Cd557       O564   2.472       .  S
Cd557       O563   2.434       .  S
Cd557       O562   2.442       .  S
Cd557       O558   2.490       .  S
Cd557       O561   2.438       .  S
Cd557       O559   2.450       .  S
C560        C649   1.477       .  S
C560        O564   1.266       .  A
C565        C566   1.404       .  A
C565        C570   1.412       .  A
C566        C567   1.398       .  A
C566        H575   1.084       .  S
C567        C568   1.412       .  A
C567        S571   1.803       .  S
C568        C569   1.403       .  A
C569        C570   1.397       .  A
C569        H576   1.084       .  S
C570        S572   1.805       .  S
S571        H574   1.407       .  S
S572        H573   1.406       .  S
C577        C578   1.402       .  A
C577        C582   1.415       .  A
C578        C579   1.396       .  A
C578        H587   1.084       .  S
C579        C800   1.413       .  A
C579        S583   1.803       .  S
C580        C799   1.413       .  A
C580        C581   1.402       .  A
C581        C802   1.398       .  A
C581        H588   1.084   1_565  S
C582        C801   1.398       .  A
C582        S804   1.805       .  S
S583        H586   1.407       .  S
S584        C802   1.805       .  S
S584        H805   1.407       .  S
H585        S804   1.407       .  S
C589        C590   1.403       .  A
C589        C594   1.414       .  A
C590        C591   1.396       .  A
C590        H599   1.084       .  S
C591        C592   1.412       .  A
C591        S595   1.805       .  S
C592        C593   1.403       .  A
C593        C594   1.402       .  A
C593        H600   1.084       .  S
S595        H598   1.406       .  S
S596        H597   1.407       .  S
C601        C602   1.405       .  A
C601        C606   1.417       .  A
C602        C603   1.405       .  A
C602        H611   1.083       .  S
C603        C604   1.418       .  A
C603        S607   1.810       .  S
C604        C605   1.402       .  A
C605        C606   1.397       .  A
C605        H832   1.084       .  S
C606        S828   1.802       .  S
S607        H610   1.407       .  S
S608        C826   1.802       .  S
S608        H609   1.408       .  S
H612        C825   1.084       .  S
C613        C614   1.405       .  A
C613        C618   1.413       .  A
C614        C615   1.401       .  A
C614        H623   1.084   1_554  S
C615        C616   1.412       .  A
C615        S619   1.804       .  S
C616        C617   1.402       .  A
C617        C618   1.395       .  A
C617        H624   1.084       .  S
C618        S620   1.802       .  S
S619        H622   1.406       .  S
S620        H621   1.407       .  S
C625        C626   1.407       .  A
C625        C630   1.415       .  A
C626        C627   1.398       .  A
C626        H635   1.083       .  S
C627        C628   1.409       .  A
C627        S631   1.805       .  S
C628        C629   1.403       .  A
C629        C630   1.401       .  A
C629        H636   1.084       .  S
C630        S632   1.802       .  S
S631        H634   1.405       .  S
S632        H633   1.407       .  S
C637        C638   1.399       .  A
C637        C642   1.410       .  A
C638        C639   1.395       .  A
C638        H647   1.084       .  S
C639        C640   1.413       .  A
C639        S643   1.809       .  S
C640        C641   1.403       .  A
C641        C642   1.399       .  A
C641        H648   1.084       .  S
C642        S644   1.805       .  S
S643        H646   1.401       .  S
S644        H645   1.406       .  S
C649        C650   1.400       .  A
C649        C654   1.414       .  A
C650        C651   1.396       .  A
C650        H659   1.084       .  S
C651        C652   1.419       .  A
C651        S655   1.805       .  S
C652        C653   1.406       .  A
C653        C654   1.402       .  A
C653        H660   1.083       .  S
C654        S656   1.803       .  S
S655        H658   1.406       .  S
S656        H657   1.407       .  S
C661        C662   1.411       .  A
C661        C666   1.402       .  A
C661        C872   1.490       .  S
C662        C663   1.407       .  A
C662        H667   1.083       .  S
C663        C664   1.401       .  A
C663        C681   1.473       .  S
C664        C665   1.398       .  A
C664        H668   1.084       .  S
C665        C666   1.396       .  A
C665        C860   1.468       .  S
C666        H669   1.084       .  S
C670        C671   1.405       .  A
C670        C675   1.397       .  A
C670        C848   1.474       .  S
C671        C672   1.406       .  A
C671        H676   1.084       .  S
C672        C673   1.404       .  A
C672        C703   1.474       .  S
C673        C674   1.404       .  A
C673        H677   1.084       .  S
C674        C675   1.398       .  A
C674        C836   1.475       .  S
C675        H678   1.085       .  S
C679        C680   1.409       .  A
C679        C684   1.409       .  A
C679        C711   1.482       .  S
C680        H685   1.083       .  S
C681        C682   1.400       .  A
C682        H686   1.085       .  S
C683        C684   1.401       .  A
C683        C691   1.479       .  S
C684        H687   1.083   1_554  S
O688        C691   1.268   1_556  A
O688       Cd693   2.496       .  S
C689        C701   1.483       .  S
C689        O698   1.261   1_554  A
C689        O694   1.265       .  A
O690        C696   1.266   1_556  A
C692        C821   1.487       .  S
C692        O697   1.261       .  A
C692        O695   1.267       .  A
Cd693       O698   2.450       .  S
Cd693       O694   2.522   1_556  S
Cd693       O697   2.439       .  S
Cd693       O695   2.498       .  S
C696        C833   1.473       .  S
C696        O700   1.266       .  A
C701        C702   1.409       .  A
C701        C706   1.409       .  A
C702        C703   1.406       .  A
C702        H707   1.083       .  S
C703        C704   1.399       .  A
C704        C705   1.403       .  A
C704        H708   1.084       .  S
C705        C706   1.402       .  A
C705        C713   1.479       .  S
C706        H709   1.084   1_554  S
O710        C713   1.270   1_556  A
C711        O720   1.259   1_554  A
C711        O716   1.265       .  A
O712        C718   1.261       .  A
O712       Cd715   2.440       .  S
C714        C857   1.460       .  S
C714        O719   1.264   1_554  A
C714        O717   1.265       .  A
Cd715       O722   2.498       .  S
Cd715       O721   2.435   1_556  S
Cd715       O720   2.434       .  S
Cd715       O716   2.533   1_556  S
Cd715       O719   2.445       .  S
Cd715       O717   2.445   1_556  S
C718        C809   1.474       .  S
C718        O722   1.266       .  A
C723        C724   1.399       .  A
C723        C728   1.405       .  A
C723        C812   1.475       .  S
C724        C725   1.400       .  A
C724        H729   1.085       .  S
C725        C726   1.403       .  A
C725        C797   1.479       .  S
C726        C727   1.402       .  A
C726        H730   1.084       .  S
C727        C728   1.405       .  A
C727        C743   1.473       .  S
C728        H731   1.084       .  S
C732        C733   1.402       .  A
C732        C737   1.409   1_565  A
C732        C824   1.490       .  S
C733        C734   1.399       .  A
C733        H738   1.083       .  S
C734        C735   1.402       .  A
C734        C785   1.476       .  S
C735        C736   1.402   1_565  A
C735        H739   1.084       .  S
C736        C737   1.405       .  A
C741        C742   1.409       .  A
C741        C746   1.408       .  A
C741        C775   1.481       .  S
C742        C743   1.405       .  A
C742        H747   1.084       .  S
C743        C744   1.398       .  A
C745        C751   1.477       .  S
C746        H749   1.084       .  S
O750        C753   1.265       .  A
O750       Cd755   2.518       .  S
C751        O760   1.261       .  A
C751        O756   1.268       .  A
O752        C758   1.266       .  A
O752       Cd755   2.441       .  S
C753        C763   1.482       .  S
C753        O761   1.261       .  A
C754        C845   1.482       .  S
C754        O759   1.262       .  A
C754        O757   1.266       .  A
Cd755       O762   2.444       .  S
Cd755       O761   2.447       .  S
Cd755       O760   2.428       .  S
Cd755       O756   2.496       .  S
Cd755       O759   2.444       .  S
Cd755       O757   2.491       .  S
C758        C788   1.471       .  S
C758        O762   1.267       .  A
C763        C764   1.408       .  A
C763        C768   1.407       .  A
C764        C765   1.406       .  A
C764        H769   1.083       .  S
C765        C766   1.400       .  A
C766        C767   1.404       .  A
C766        H770   1.084       .  S
C767        C768   1.401       .  A
C767        C773   1.478       .  S
C768        H771   1.084       .  S
O772        C775   1.268       .  A
O772       Cd777   2.502       .  S
C773        O782   1.261       .  A
C773        O778   1.267       .  A
O774        C780   1.263       .  A
O774       Cd777   2.460       .  S
C775        O783   1.264       .  A
C776        C800   1.471       .  S
C776        O781   1.265       .  A
C776        O779   1.266       .  A
Cd777       O784   2.472       .  S
Cd777       O783   2.434       .  S
Cd777       O782   2.441       .  S
Cd777       O778   2.490       .  S
Cd777       O781   2.438       .  S
Cd777       O779   2.450       .  S
C780        C869   1.477       .  S
C780        O784   1.266       .  A
C785        C786   1.404       .  A
C785        C790   1.412       .  A
C786        C787   1.398       .  A
C786        H795   1.084       .  S
C787        C788   1.412       .  A
C787        S791   1.803       .  S
C788        C789   1.403       .  A
C789        C790   1.397       .  A
C789        H796   1.084       .  S
C790        S792   1.805       .  S
S791        H794   1.407       .  S
S792        H793   1.406       .  S
C797        C798   1.402       .  A
C797        C802   1.415       .  A
C798        C799   1.396       .  A
C798        H807   1.084       .  S
C799        S803   1.803       .  S
C800        C801   1.402       .  A
C801        H808   1.084       .  S
S803        H806   1.407       .  S
C809        C810   1.403       .  A
C809        C814   1.414       .  A
C810        C811   1.396       .  A
C810        H819   1.084       .  S
C811        C812   1.412       .  A
C811        S815   1.805       .  S
C812        C813   1.403       .  A
C813        C814   1.402       .  A
C813        H820   1.084       .  S
S815        H818   1.406       .  S
S816        H817   1.407       .  S
C821        C822   1.405       .  A
C821        C826   1.417   1_565  A
C822        C823   1.405       .  A
C822        H831   1.083       .  S
C823        C824   1.418       .  A
C823        S827   1.810       .  S
C824        C825   1.402   1_565  A
C825        C826   1.397       .  A
S827        H830   1.407       .  S
S828        H829   1.408       .  S
C833        C834   1.405       .  A
C833        C838   1.413       .  A
C834        C835   1.401       .  A
C834        H843   1.084   1_554  S
C835        C836   1.412       .  A
C835        S839   1.804       .  S
C836        C837   1.402       .  A
C837        C838   1.395       .  A
C837        H844   1.084       .  S
C838        S840   1.803       .  S
S839        H842   1.406       .  S
S840        H841   1.407       .  S
C845        C846   1.407       .  A
C845        C850   1.415       .  A
C846        C847   1.398       .  A
C846        H855   1.083       .  S
C847        C848   1.409       .  A
C847        S851   1.805       .  S
C848        C849   1.403       .  A
C849        C850   1.401       .  A
C849        H856   1.084       .  S
C850        S852   1.802       .  S
S851        H854   1.405       .  S
S852        H853   1.407       .  S
C857        C858   1.399       .  A
C857        C862   1.410       .  A
C858        C859   1.395       .  A
C858        H867   1.084       .  S
C859        C860   1.413       .  A
C859        S863   1.808       .  S
C860        C861   1.403       .  A
C861        C862   1.399       .  A
C861        H868   1.084       .  S
C862        S864   1.805       .  S
S863        H866   1.401       .  S
S864        H865   1.406       .  S
C869        C870   1.400       .  A
C869        C874   1.414       .  A
C870        C871   1.396       .  A
C870        H879   1.084       .  S
C871        C872   1.419       .  A
C871        S875   1.805       .  S
C872        C873   1.406       .  A
C873        C874   1.402       .  A
C873        H880   1.083       .  S
C874        S876   1.803       .  S
S875        H878   1.406       .  S
S876        H877   1.407       .  S
