geometry optimzed in LAMMPS
_audit_creation_date              2020-11-30 
_audit_creation_method            'lammps2cif' 
_symmetry_space_group_name_H-M    'P1' 
_symmetry_Int_Tables_number       1 
_symmetry_cell_setting            triclinic 
loop_ 
_symmetry_equiv_pos_as_xyz 
  x,y,z 
_cell_length_a                    35.172716250408286 
_cell_length_b                    35.08138416606843 
_cell_length_c                    34.98689568610421 
_cell_angle_alpha                 89.77838773708113 
_cell_angle_beta                  90.10889849291051 
_cell_angle_gamma                 90.00027361027568 
loop_ 
_atom_site_label 
_atom_site_type_symbol 
_atom_site_fract_x 
_atom_site_fract_y 
_atom_site_fract_z 
_atom_site_charge 
O1          O  0.28697474  0.50383428  0.94901035    -0.74710
O2          O  0.28109392  0.49960567  0.05779125    -0.74740
O3          O  0.27952318  0.44667320  0.00102788    -0.74800
O4          O  0.28538679  0.55645557  0.00524142    -0.74850
O5          O  0.22255715  0.55843005  0.00167739    -0.74780
O6          O  0.21620861  0.45085661  0.99901930    -0.74760
O7          O  0.21815505  0.50429153  0.05525642    -0.74730
O8          O  0.22382446  0.50606580  0.94503495    -0.74800
Ni9        Ni  0.28553678  0.50141468  0.00341852     1.25410
Ni10       Ni  0.21797022  0.50492943  0.00007112     1.25360
C11         C  0.25672027  0.50567278  0.92893755     0.87470
C12         C  0.24911267  0.50243873  0.07476406     0.87400
C13         C  0.24650313  0.43098903  0.99935580     0.87430
C14         C  0.25426266  0.57562418  0.00419231     0.87600
C15         C  0.23857049  0.49958504  0.76005572    -0.02770
O16         O  0.72624435  0.49246405  0.94269558    -0.74710
O17         O  0.72574229  0.49875138  0.05041002    -0.74740
O18         O  0.72791459  0.55045883  0.99413440    -0.74800
O19         O  0.72700610  0.44016406  0.00041911    -0.74850
O20         O  0.79014991  0.44021978  0.99913244    -0.74780
O21         O  0.79128597  0.54919838  0.99622852    -0.74760
O22         O  0.78858158  0.49543627  0.05199582    -0.74730
O23         O  0.78958876  0.49423881  0.94209273    -0.74800
Ni24       Ni  0.72448924  0.49537117  0.99671276     1.25410
Ni25       Ni  0.79219474  0.49468316  0.99721582     1.25360
C26         C  0.75750845  0.49398320  0.92440797     0.87470
C27         C  0.75654115  0.49787324  0.06937396     0.87400
C28         C  0.76011220  0.56784364  0.99547397     0.87430
C29         C  0.75883378  0.42199287  0.00177035     0.87600
C30         C  0.75500032  0.50534962  0.75411593    -0.02770
O31         O  0.94085311  0.49705740  0.71871165    -0.74710
O32         O  0.04964957  0.49921627  0.71720602    -0.74740
O33         O  0.99568239  0.44316368  0.72079550    -0.74800
O34         O  0.99395791  0.55223032  0.71414777    -0.74850
O35         O  0.99564281  0.55525553  0.77769019    -0.74780
O36         O  0.99596430  0.44577140  0.78446343    -0.74760
O37         O  0.05005155  0.50042409  0.78041658    -0.74730
O38         O  0.94191816  0.49952211  0.78211130    -0.74800
Ni39       Ni  0.99502662  0.49769688  0.71545001     1.25410
Ni40       Ni  0.99593327  0.50049765  0.78341731     1.25360
C41         C  0.92338609  0.49750953  0.75078917     0.87470
C42         C  0.06814552  0.50037260  0.74875135     0.87400
C43         C  0.99581587  0.42648282  0.75347553     0.87430
C44         C  0.99477954  0.57182956  0.74486405     0.87600
O45         O  0.94213009  0.49685827  0.28892055    -0.74710
O46         O  0.05014570  0.49696900  0.28505455    -0.74740
O47         O  0.99622014  0.55129184  0.28545544    -0.74800
O48         O  0.99616529  0.44187142  0.28707922    -0.74850
O49         O  0.99562281  0.44199390  0.22334305    -0.74780
O50         O  0.99276249  0.55000240  0.22180701    -0.74760
O51         O  0.04827659  0.49720845  0.22207787    -0.74730
O52         O  0.93979250  0.49485578  0.22516303    -0.74800
Ni53       Ni  0.99622131  0.49665866  0.28895925     1.25410
Ni54       Ni  0.99399826  0.49591021  0.22084738     1.25360
C55         C  0.92323596  0.49641941  0.25773601     0.87470
C56         C  0.06750354  0.49810166  0.25312821     0.87400
C57         C  0.99452051  0.56850737  0.25308403     0.87430
C58         C  0.99619847  0.42404850  0.25511269     0.87600
C59         C  0.75660013  0.50000500  0.23958422    -0.02770
C60         C  0.23670190  0.50338504  0.24545099    -0.02770
O61         O  0.49896731  0.71939310  0.94431157    -0.74710
O62         O  0.50030237  0.71477204  0.05349246    -0.74740
O63         O  0.44525859  0.71910798  0.99992677    -0.74800
O64         O  0.55358272  0.71611076  0.99761347    -0.74850
O65         O  0.55556066  0.77890449  0.00206511    -0.74780
O66         O  0.44664629  0.78223270  0.00084489    -0.74760
O67         O  0.50100283  0.77826077  0.05601325    -0.74730
O68         O  0.50084627  0.78267115  0.94651440    -0.74800
Ni69       Ni  0.49943643  0.71513697  0.99878439     1.25410
Ni70       Ni  0.50112947  0.78282328  0.00142277     1.25360
C71         C  0.49967839  0.75167119  0.92723547     0.87470
C72         C  0.50067829  0.74570000  0.07273848     0.87400
C73         C  0.42775494  0.75108415  0.00018234     0.87430
C74         C  0.57286769  0.74689304  0.99991992     0.87600
C75         C  0.49722458  0.76233750  0.75637274    -0.02770
O76         O  0.49764780  0.95009564  0.71840670    -0.74710
O77         O  0.50104293  0.05887182  0.71786146    -0.74740
O78         O  0.55431008  0.00188231  0.71636591    -0.74800
O79         O  0.44511818  0.00610291  0.72117728    -0.74850
O80         O  0.44800923  0.00696232  0.78463023    -0.74780
O81         O  0.55682360  0.00259080  0.77977832    -0.74760
O82         O  0.50441515  0.05928411  0.78145658    -0.74730
O83         O  0.50041630  0.94991830  0.78211763    -0.74800
Ni84       Ni  0.49948504  0.00433297  0.71620178     1.25410
Ni85       Ni  0.50252974  0.00467345  0.78426034     1.25360
C86         C  0.49867130  0.93209865  0.75020247     0.87470
C87         C  0.50280307  0.07710591  0.74943090     0.87400
C88         C  0.57373476  0.00074638  0.74745187     0.87430
C89         C  0.42846005  0.00747862  0.75375117     0.87600
O90         O  0.55361738  0.21896120  0.99553392    -0.74710
O91         O  0.44495204  0.21887356  0.99798748    -0.74740
O92         O  0.49834448  0.22080257  0.94254035    -0.74800
O93         O  0.50108431  0.21700405  0.05174835    -0.74850
O94         O  0.49876098  0.28024006  0.05418526    -0.74780
O95         O  0.50139269  0.28422190  0.94500338    -0.74760
O96         O  0.44617831  0.28187560  0.99927990    -0.74730
O97         O  0.55408180  0.28211806  0.00126023    -0.74800
Ni98       Ni  0.49943653  0.21658060  0.99697566     1.25410
Ni99       Ni  0.50004475  0.28435636  0.99989684     1.25360
C100        C  0.57176548  0.25049470  0.99801262     0.87470
C101        C  0.42734602  0.25075583  0.99885533     0.87400
C102        C  0.50040781  0.25321196  0.92576565     0.87430
C103        C  0.50029325  0.24795023  0.07109991     0.87600
C104        C  0.50251034  0.24762900  0.75505423    -0.02770
O105        O  0.55417744  0.00061871  0.20987798    -0.74710
O106        O  0.44617185  0.00098515  0.21839263    -0.74740
O107        O  0.50037639  0.05586289  0.21980755    -0.74800
O108        O  0.49909406  0.94595860  0.21086847    -0.74850
O109        O  0.50415491  0.94176344  0.27414166    -0.74780
O110        O  0.50579569  0.05022322  0.28310938    -0.74760
O111        O  0.45011881  0.99701608  0.28143534    -0.74730
O112        O  0.55938002  0.99553210  0.27323125    -0.74800
Ni113      Ni  0.49990116  0.00110616  0.21247911     1.25410
Ni114      Ni  0.50507237  0.99589860  0.28020986     1.25360
C115        C  0.57464527  0.99774535  0.23994835     0.87470
C116        C  0.42990032  0.99949140  0.25089183     0.87400
C117        C  0.50281306  0.07094912  0.25320449     0.87430
C118        C  0.50083110  0.92572646  0.24154199     0.87600
C119        C  0.49959832  0.75371766  0.24226711    -0.02770
C120        C  0.50073437  0.23911611  0.24136584    -0.02770
O121        O  0.21931439  0.00014410  0.55632940    -0.74710
O122        O  0.22041934  0.00469009  0.44730648    -0.74740
O123        O  0.21945612  0.94797260  0.50063926    -0.74800
O124        O  0.22098209  0.05714590  0.50318840    -0.74850
O125        O  0.28403894  0.05637923  0.50384665    -0.74780
O126        O  0.28228173  0.94682593  0.50105164    -0.74760
O127        O  0.28356257  0.00250475  0.44776469    -0.74730
O128        O  0.28238793  0.00049768  0.55720672    -0.74800
Ni129      Ni  0.21784440  0.00257509  0.50180008     1.25410
Ni130      Ni  0.28535013  0.00156214  0.50248234     1.25360
C131        C  0.25057517  0.99926891  0.57497714     0.87470
C132        C  0.25205397  0.00384709  0.42939128     0.87400
C133        C  0.25054151  0.92895661  0.50066141     0.87430
C134        C  0.25272928  0.07503631  0.50417613     0.87600
C135        C  0.23945685  0.75750267  0.50209220    -0.02770
O136        O  0.78274926  0.00187515  0.55611755    -0.74710
O137        O  0.77934386  0.00361359  0.44710870    -0.74740
O138        O  0.77945452  0.05793106  0.50252822    -0.74800
O139        O  0.78155980  0.94899026  0.50144046    -0.74850
O140        O  0.71868950  0.94842904  0.49937906    -0.74780
O141        O  0.71608937  0.05638280  0.50595190    -0.74760
O142        O  0.71663932  0.00601215  0.44834468    -0.74730
O143        O  0.71968492  0.99927157  0.55776562    -0.74800
Ni144      Ni  0.78305846  0.00331089  0.50167033     1.25410
Ni145      Ni  0.71551249  0.00243739  0.50299424     1.25360
C146        C  0.75190189  0.99922821  0.57510333     0.87470
C147        C  0.74765403  0.00512660  0.42925675     0.87400
C148        C  0.74723522  0.07491031  0.50452693     0.87430
C149        C  0.75023705  0.93051388  0.49998941     0.87600
C150        C  0.75875986  0.76049807  0.50227584    -0.02770
O151        O  0.94456354  0.70964614  0.50604781    -0.74710
O152        O  0.05242886  0.71134455  0.50645612    -0.74740
O153        O  0.99816687  0.71507421  0.56191918    -0.74800
O154        O  0.99826754  0.71006560  0.45144739    -0.74850
O155        O  0.99713656  0.77294179  0.44821761    -0.74780
O156        O  0.99731527  0.77849606  0.55708662    -0.74760
O157        O  0.05258654  0.77474792  0.50255442    -0.74730
O158        O  0.94260117  0.77305238  0.50247507    -0.74800
Ni159      Ni  0.99841849  0.70931468  0.50668936     1.25410
Ni160      Ni  0.99741121  0.77710478  0.50257281     1.25360
C161        C  0.92570241  0.74051818  0.50360535     0.87470
C162        C  0.07051366  0.74273909  0.50414704     0.87400
C163        C  0.99765895  0.74824971  0.57750153     0.87430
C164        C  0.99718196  0.74082849  0.43132673     0.87600
O165        O  0.99601512  0.22468214  0.55308485    -0.74710
O166        O  0.00211587  0.22208789  0.44339888    -0.74740
O167        O  0.05309559  0.22085328  0.50185368    -0.74800
O168        O  0.94497339  0.22628632  0.49469682    -0.74850
O169        O  0.94633645  0.28940638  0.49723754    -0.74780
O170        O  0.05595243  0.28391534  0.49659066    -0.74760
O171        O  0.00111718  0.28561614  0.44175042    -0.74730
O172        O  0.00182270  0.28788849  0.55155894    -0.74800
Ni173      Ni  0.99887564  0.22127095  0.49826324     1.25410
Ni174      Ni  0.00138815  0.28902875  0.49664700     1.25360
C175        C  0.99911421  0.25663874  0.57047027     0.87470
C176        C  0.00205778  0.25344028  0.42448737     0.87400
C177        C  0.07262912  0.25154328  0.50029474     0.87430
C178        C  0.92736376  0.25821344  0.49626594     0.87600
C179        C  0.75764458  0.24144176  0.49737763    -0.02770
C180        C  0.24273566  0.24536584  0.50140710    -0.02770
C181        C  0.00213111  0.25435668  0.25313615    -0.02770
C182        C  0.74224373  0.00174334  0.25713814    -0.02770
C183        C  0.00555958  0.73566427  0.26013999    -0.02770
C184        C  0.25970288  0.00035776  0.25937891    -0.02770
C185        C  0.00068310  0.74284265  0.74498436    -0.02770
C186        C  0.25927420  0.99686717  0.74517994    -0.02770
C187        C  0.00662436  0.25840839  0.74238855    -0.02770
C188        C  0.74460605  0.99874976  0.74533678    -0.02770
C189        C  0.25904494  0.26345639  0.99917311    -0.02770
C190        C  0.25838028  0.74516203  0.00341640    -0.02770
C191        C  0.73960945  0.25169128  0.99426190    -0.02770
C192        C  0.74345902  0.73649221  0.00202509    -0.02770
C193        C  0.81403749  0.18752335  0.13258876     0.02840
C194        C  0.79769948  0.15447958  0.14873158    -0.13300
C195        C  0.81456993  0.13663758  0.18046876     0.00350
C196        C  0.84814329  0.15167441  0.19576721    -0.11830
C197        C  0.86382471  0.18563421  0.18135130     0.02840
C198        C  0.84631254  0.20368323  0.14983358    -0.11250
H199        H  0.77213334  0.14245385  0.13632296     0.08430
H200        H  0.86169215  0.13720626  0.21959875     0.05960
H201        H  0.85830271  0.22967312  0.13815598     0.05810
C202        C  0.18273248  0.82067719  0.13546610     0.02840
C203        C  0.19933824  0.85210929  0.15348752    -0.13300
C204        C  0.18405824  0.86671606  0.18742659     0.00350
C205        C  0.15163231  0.84956197  0.20332799    -0.11830
C206        C  0.13395958  0.81885253  0.18493294     0.02840
C207        C  0.14926423  0.80492334  0.15071295    -0.11250
H208        H  0.22497647  0.86456545  0.14168220     0.08430
H209        H  0.14054156  0.85961134  0.23036024     0.05960
H210        H  0.13624477  0.78048561  0.13704326     0.05810
C211        C  0.14249874  0.18264153  0.81611897     0.02840
C212        C  0.15031311  0.14381607  0.80942786    -0.13300
C213        C  0.18354389  0.12671385  0.82342585     0.00350
C214        C  0.20419226  0.14496213  0.85244291    -0.11830
C215        C  0.19517365  0.18227715  0.86295160     0.02840
C216        C  0.16723883  0.20204222  0.84165258    -0.11250
H217        H  0.13151671  0.12674398  0.79232769     0.08430
H218        H  0.22812923  0.13062112  0.86572185     0.05960
H219        H  0.16441114  0.23238322  0.84607710     0.05810
C220        C  0.85968323  0.80653697  0.19862358     0.02840
C221        C  0.84384464  0.78895838  0.16585108    -0.13300
C222        C  0.81140177  0.80380624  0.14710476     0.00350
C223        C  0.79471543  0.83710766  0.16223591    -0.11830
C224        C  0.80945548  0.85535561  0.19496825     0.02840
C225        C  0.84183459  0.83949470  0.21278376    -0.11250
H226        H  0.85687815  0.76333995  0.15490181     0.08430
H227        H  0.76965324  0.84874045  0.14854186     0.05960
H228        H  0.85322293  0.85297843  0.23808965     0.05810
C229        C  0.18493271  0.81146928  0.86599226     0.02840
C230        C  0.15220587  0.79648731  0.84904944    -0.13300
C231        C  0.13762772  0.81233720  0.81521680     0.00350
C232        C  0.15590062  0.84406473  0.79892897    -0.11830
C233        C  0.18836706  0.85986443  0.81619296     0.02840
C234        C  0.20266695  0.84323793  0.84955496    -0.11250
H235        H  0.13845210  0.77193921  0.86185136     0.08430
H236        H  0.14493240  0.85640526  0.77270883     0.05960
H237        H  0.22819640  0.85472914  0.86255345     0.05810
C238        C  0.81612487  0.19405839  0.85398191     0.02840
C239        C  0.84566256  0.21148119  0.83331725    -0.13300
C240        C  0.85998106  0.19449164  0.79986771     0.00350
C241        C  0.84303120  0.16090021  0.78593893    -0.11830
C242        C  0.81354454  0.14281993  0.80626296     0.02840
C243        C  0.80080132  0.15943008  0.84050388    -0.11250
H244        H  0.85840868  0.23753749  0.84385103     0.08430
H245        H  0.85414210  0.14780034  0.76028103     0.05960
H246        H  0.77846531  0.14549775  0.85666126     0.05810
C247        C  0.81187517  0.80898705  0.86340824     0.02840
C248        C  0.79668269  0.84228923  0.84721946    -0.13300
C249        C  0.81421584  0.85967605  0.81566114     0.00350
C250        C  0.84686317  0.84260500  0.79984482    -0.11830
C251        C  0.86086570  0.80803932  0.81450620     0.02840
C252        C  0.84353917  0.79156391  0.84664506    -0.11250
H253        H  0.77127075  0.85475351  0.85941343     0.08430
H254        H  0.86117675  0.85599173  0.77589867     0.05960
H255        H  0.85492340  0.76549611  0.85883038     0.05810
C256        C  0.18781126  0.17928920  0.12936161     0.02840
C257        C  0.20343056  0.14754209  0.14787137    -0.13300
C258        C  0.18694606  0.13295777  0.18125979     0.00350
C259        C  0.15435395  0.15059830  0.19623260    -0.11830
C260        C  0.13790237  0.18238648  0.17809085     0.02840
C261        C  0.15466245  0.19623352  0.14423504    -0.11250
H262        H  0.22916866  0.13474605  0.13674375     0.08430
H263        H  0.14180945  0.13959116  0.22229505     0.05960
H264        H  0.14240450  0.22071840  0.12982588     0.05810
C265        C  0.31168085  0.36370224  0.68970555     0.02840
C266        C  0.34504848  0.34794325  0.70512629    -0.13300
C267        C  0.36345339  0.31770792  0.68648298     0.00350
C268        C  0.34781993  0.30343318  0.65234771    -0.11830
C269        C  0.31366304  0.31826467  0.63743691     0.02840
C270        C  0.29574225  0.34832697  0.65643236    -0.11250
H271        H  0.35678539  0.35941408  0.73133909     0.08430
H272        H  0.36199791  0.28033466  0.63761024     0.05960
H273        H  0.26936923  0.35992012  0.64529456     0.05810
C274        C  0.68466908  0.36327900  0.31084314     0.02840
C275        C  0.65235326  0.34595749  0.29501726    -0.13300
C276        C  0.63757322  0.31239990  0.31100392     0.00350
C277        C  0.65510049  0.29639378  0.34337058    -0.11830
C278        C  0.68735948  0.31379255  0.35952841     0.02840
C279        C  0.70212856  0.34716480  0.34310938    -0.11250
H280        H  0.63902756  0.35831463  0.26990391     0.08430
H281        H  0.64370440  0.27054358  0.35595295     0.05960
H282        H  0.72722326  0.36040157  0.35525466     0.05810
C283        C  0.30590693  0.64569500  0.30760304     0.02840
C284        C  0.34047692  0.66090273  0.29506250    -0.13300
C285        C  0.36411980  0.68260341  0.31988926     0.00350
C286        C  0.34865992  0.69063542  0.35636734    -0.11830
C287        C  0.30994159  0.68444734  0.36436815     0.02840
C288        C  0.28897818  0.66079589  0.34017367    -0.11250
H289        H  0.34863708  0.65435073  0.26617553     0.08430
H290        H  0.36540031  0.70152451  0.37946946     0.05960
H291        H  0.26017225  0.65268506  0.34752294     0.05810
C292        C  0.31190775  0.36108279  0.30926029     0.02840
C293        C  0.34355730  0.34255987  0.29292162    -0.13300
C294        C  0.35836142  0.30834505  0.30851440     0.00350
C295        C  0.34019776  0.29255041  0.34086466    -0.11830
C296        C  0.31013123  0.31166232  0.35905559     0.02840
C297        C  0.29634648  0.34586504  0.34315448    -0.11250
H298        H  0.35639867  0.35452733  0.26751450     0.08430
H299        H  0.34975908  0.26548864  0.35237282     0.05960
H300        H  0.27287578  0.36037601  0.35688899     0.05810
C301        C  0.36069154  0.68788527  0.68764450     0.02840
C302        C  0.34206720  0.65785168  0.70687727    -0.13300
C303        C  0.31081316  0.63889696  0.68992079     0.00350
C304        C  0.29755847  0.65181456  0.65414277    -0.11830
C305        C  0.31398488  0.68365390  0.63650839     0.02840
C306        C  0.34635760  0.70046087  0.65241814    -0.11250
H307        H  0.35221311  0.64899955  0.73478341     0.08430
H308        H  0.27364298  0.63790759  0.64047968     0.05960
H309        H  0.35976202  0.72419554  0.63778308     0.05810
C310        C  0.68918001  0.36635746  0.68434097     0.02840
C311        C  0.70867054  0.34730252  0.65517118    -0.13300
C312        C  0.69182160  0.31628544  0.63612006     0.00350
C313        C  0.65613765  0.30308873  0.64935149    -0.11830
C314        C  0.63842603  0.31937661  0.68137966     0.02840
C315        C  0.65440123  0.35214333  0.69750094    -0.11250
H316        H  0.73684158  0.35697211  0.64749279     0.08430
H317        H  0.64225426  0.27951362  0.63523927     0.05960
H318        H  0.63997929  0.36637210  0.72080595     0.05810
C319        C  0.69420421  0.69265976  0.35890050     0.02840
C320        C  0.71093953  0.66135803  0.34005250    -0.13300
C321        C  0.69245668  0.64350365  0.30902210     0.00350
C322        C  0.65771839  0.65878858  0.29603699    -0.11830
C323        C  0.64154750  0.69107071  0.31331773     0.02840
C324        C  0.65939050  0.70702830  0.34533449    -0.11250
H325        H  0.73806120  0.65049080  0.34998173     0.08430
H326        H  0.64305191  0.64546940  0.27232315     0.05960
H327        H  0.64602147  0.73075934  0.35981892     0.05810
C328        C  0.68306847  0.64344094  0.68733876     0.02840
C329        C  0.65202630  0.66128385  0.70469366    -0.13300
C330        C  0.63608963  0.69432864  0.68877914     0.00350
C331        C  0.65276169  0.71078544  0.65635567    -0.11830
C332        C  0.68354000  0.69293785  0.63857206     0.02840
C333        C  0.69795681  0.65882677  0.65342587    -0.11250
H334        H  0.63998990  0.64924214  0.73053496     0.08430
H335        H  0.64139613  0.73704640  0.64456215     0.05960
H336        H  0.72144726  0.64487426  0.63914369     0.05810
C337        C  0.74478301  0.75294528  0.92691388    -0.02130
C338        C  0.75942969  0.75969128  0.96535388     0.07550
C339        C  0.78786800  0.78983240  0.96729964    -0.02250
C340        C  0.80739417  0.80195849  0.93414983    -0.02250
C341        C  0.79406327  0.79230388  0.89788461     0.07680
C342        C  0.76176705  0.76968749  0.89425903    -0.02440
Br343      Br  0.74282011  0.75993831  0.84288314    -0.00990
Br344      Br  0.70279711  0.72036732  0.91393921    -0.01060
Br345      Br  0.85193309  0.83435127  0.93776446    -0.01020
Br346      Br  0.79472471  0.82583251  0.00900061    -0.01010
C347        C  0.80022323  0.75149523  0.05040807    -0.02130
C348        C  0.75984410  0.75353719  0.04210299     0.07550
C349        C  0.73734093  0.76909062  0.07356252    -0.02250
C350        C  0.75469057  0.77967201  0.10889162    -0.02250
C351        C  0.79424788  0.78458986  0.11212585     0.07680
C352        C  0.81678793  0.77116428  0.08183527    -0.02440
Br353      Br  0.87037909  0.78432982  0.07997026    -0.00990
Br354      Br  0.83644842  0.72579453  0.01837217    -0.01060
Br355      Br  0.72445461  0.78243445  0.15542002    -0.01020
Br356      Br  0.68233977  0.77297854  0.07618867    -0.01010
C357        C  0.81986462  0.21915174  0.92246894    -0.02130
C358        C  0.79917479  0.21217607  0.88867800     0.07550
C359        C  0.76024414  0.21964414  0.88858746    -0.02250
C360        C  0.74039150  0.22406674  0.92290191    -0.02250
C361        C  0.76016113  0.23605681  0.95710965     0.07680
C362        C  0.80136534  0.23436456  0.95517640    -0.02440
Br363      Br  0.83422828  0.25370842  0.99556925    -0.00990
Br364      Br  0.87348055  0.20803437  0.92433070    -0.01060
Br365      Br  0.68906747  0.20429643  0.91839603    -0.01020
Br366      Br  0.73423386  0.22785655  0.84061300    -0.01010
C367        C  0.77845056  0.19372324  0.02988226    -0.02130
C368        C  0.75471673  0.22776371  0.03103077     0.07550
C369        C  0.74679050  0.24033888  0.06899432    -0.02250
C370        C  0.77429567  0.23591764  0.09769852    -0.02250
C371        C  0.79776338  0.20367062  0.09667077     0.07680
C372        C  0.79965040  0.18249801  0.06267811    -0.02440
Br373      Br  0.83361247  0.13904231  0.06109468    -0.00990
Br374      Br  0.78058818  0.15734755  0.98781530    -0.01060
Br375      Br  0.76930271  0.26522183  0.14398054    -0.01020
Br376      Br  0.70058868  0.22183965  0.09272425    -0.01010
C377        C  0.18116312  0.78796046  0.93381469    -0.02130
C378        C  0.20202655  0.79335368  0.90007796     0.07550
C379        C  0.24062838  0.78403814  0.89959710    -0.02250
C380        C  0.25966499  0.77733996  0.93394943    -0.02250
C381        C  0.23884702  0.76345929  0.96681899     0.07680
C382        C  0.19808740  0.76926005  0.96528827    -0.02440
Br383      Br  0.16249217  0.74874994  0.00222772    -0.00990
Br384      Br  0.12949262  0.80664755  0.93736576    -0.01060
Br385      Br  0.30998957  0.80040419  0.93314291    -0.01020
Br386      Br  0.26831894  0.78082357  0.85182425    -0.01010
C387        C  0.22340253  0.74410154  0.07198448    -0.02130
C388        C  0.23900825  0.76478287  0.03955979     0.07550
C389        C  0.23218249  0.80554497  0.03986251    -0.02250
C390        C  0.21081877  0.82274377  0.06931275    -0.02250
C391        C  0.20217237  0.80226218  0.10267666     0.07680
C392        C  0.21195731  0.76368577  0.10488239    -0.02440
Br393      Br  0.20991395  0.73695571  0.15349255    -0.00990
Br394      Br  0.20436669  0.69198915  0.07297101    -0.01060
Br395      Br  0.19256467  0.87453666  0.06359527    -0.01020
Br396      Br  0.25323548  0.84082019  0.00274191    -0.01010
C397        C  0.19319289  0.21250491  0.92752622    -0.02130
C398        C  0.21449872  0.20078856  0.89618209     0.07550
C399        C  0.25348808  0.20944994  0.89649245    -0.02250
C400        C  0.27050598  0.22692202  0.92921944    -0.02250
C401        C  0.24637433  0.24317052  0.95942272     0.07680
C402        C  0.20713321  0.24206174  0.94994050    -0.02440
Br403      Br  0.18249937  0.28869262  0.93380813    -0.00990
Br404      Br  0.14439692  0.19115007  0.93899796    -0.01060
Br405      Br  0.32541911  0.23190080  0.92349064    -0.01020
Br406      Br  0.28276016  0.19944798  0.85098862    -0.01010
C407        C  0.26040946  0.23534623  0.07134315    -0.02130
C408        C  0.24039096  0.24199497  0.03530724     0.07550
C409        C  0.20152884  0.22902798  0.03504995    -0.02250
C410        C  0.18851121  0.20203318  0.06167785    -0.02250
C411        C  0.20778838  0.19679888  0.09620706     0.07680
C412        C  0.24365236  0.21361950  0.10114110    -0.02440
Br413      Br  0.26842359  0.20957306  0.15082579    -0.00990
Br414      Br  0.30541827  0.26297729  0.08786703    -0.01060
Br415      Br  0.14124556  0.17533081  0.05255990    -0.01020
Br416      Br  0.15971809  0.26084768  0.01858423    -0.01010
C417        C  0.78162901  0.93156558  0.74193442    -0.02130
C418        C  0.76549278  0.96257388  0.76393747     0.07550
C419        C  0.77231235  0.95985673  0.80469690    -0.02250
C420        C  0.79140562  0.92793249  0.82071539    -0.02250
C421        C  0.79792836  0.89513279  0.79860023     0.07680
C422        C  0.78994726  0.89660756  0.75947746    -0.02440
Br423      Br  0.79003015  0.85065327  0.72888600    -0.00990
Br424      Br  0.80640974  0.93506211  0.69233433    -0.01060
Br425      Br  0.80900291  0.92937420  0.87315115    -0.01020
Br426      Br  0.75283567  0.99599724  0.84147611    -0.01010
C427        C  0.75732269  0.10261580  0.78688065    -0.02130
C428        C  0.79663923  0.10593766  0.79262321     0.07550
C429        C  0.81922147  0.07332247  0.78715011    -0.02250
C430        C  0.80348420  0.03989101  0.77059252    -0.02250
C431        C  0.76277524  0.03582944  0.76497328     0.07680
C432        C  0.74050931  0.06688824  0.78019107    -0.02440
Br433      Br  0.69039818  0.06289453  0.80329298    -0.00990
Br434      Br  0.72557591  0.14734370  0.78542404    -0.01060
Br435      Br  0.84066310  0.00373624  0.75228373    -0.01020
Br436      Br  0.87217509  0.07452217  0.80231794    -0.01010
C437        C  0.90061925  0.22380924  0.74799476    -0.02130
C438        C  0.89726848  0.20717238  0.78418742     0.07550
C439        C  0.93052943  0.19745378  0.80387872    -0.02250
C440        C  0.96649777  0.21109134  0.79131481    -0.02250
C441        C  0.97011550  0.23276236  0.75555990     0.07680
C442        C  0.93692299  0.22929101  0.73182268    -0.02440
Br443      Br  0.93993563  0.20536942  0.68228109    -0.00990
Br444      Br  0.85572446  0.23480931  0.71831217    -0.01060
Br445      Br  0.00643773  0.19367869  0.82504161    -0.01020
Br446      Br  0.92574560  0.16325156  0.84767910    -0.01010
C447        C  0.06012630  0.25342415  0.79749094    -0.02130
C448        C  0.04290983  0.23952558  0.76223938     0.07550
C449        C  0.05668424  0.20321274  0.75006443    -0.02250
C450        C  0.09260472  0.18966857  0.76227399    -0.02250
C451        C  0.10850696  0.20229041  0.79740050     0.07680
C452        C  0.08903267  0.23206309  0.81627162    -0.02440
Br453      Br  0.09323563  0.23723403  0.87136244    -0.00990
Br454      Br  0.04071535  0.29515247  0.82860725    -0.01060
Br455      Br  0.12031682  0.15791382  0.72649591    -0.01020
Br456      Br  0.02671326  0.16888398  0.71907063    -0.01010
C457        C  0.22653003  0.92746158  0.74194566    -0.02130
C458        C  0.24204002  0.95907261  0.76366000     0.07550
C459        C  0.23664442  0.95636840  0.80461941    -0.02250
C460        C  0.21583339  0.92597406  0.82080757    -0.02250
C461        C  0.20785350  0.89331928  0.79905449     0.07680
C462        C  0.21736181  0.89317863  0.76030602    -0.02440
Br463      Br  0.21707030  0.84611561  0.73139407    -0.00990
Br464      Br  0.20321724  0.92921961  0.69145939    -0.01060
Br465      Br  0.19650026  0.93040787  0.87242797    -0.01020
Br466      Br  0.25814318  0.99188857  0.84117486    -0.01010
C467        C  0.19801317  0.02986410  0.77567283    -0.02130
C468        C  0.23828849  0.03118111  0.76616507     0.07550
C469        C  0.25766433  0.06487066  0.77929340    -0.02250
C470        C  0.23679505  0.09715791  0.78818986    -0.02250
C471        C  0.20040652  0.09343788  0.80353609     0.07680
C472        C  0.18129409  0.05871858  0.79846379    -0.02440
Br473      Br  0.13230429  0.05085198  0.82206695    -0.00990
Br474      Br  0.16251841  0.99287981  0.75548766    -0.01060
Br475      Br  0.25762044  0.14605247  0.77469027    -0.01020
Br476      Br  0.30777295  0.06855158  0.80225955    -0.01010
C477        C  0.92530122  0.74451508  0.75454613    -0.02130
C478        C  0.96288358  0.75640220  0.76679848     0.07550
C479        C  0.96338108  0.77903392  0.80148695    -0.02250
C480        C  0.93079981  0.79893167  0.81330473    -0.02250
C481        C  0.89526622  0.79017869  0.79792858     0.07680
C482        C  0.89224567  0.76160996  0.77014825    -0.02440
Br483      Br  0.84207117  0.74735395  0.75245395    -0.00990
Br484      Br  0.91609231  0.70480159  0.71682126    -0.01060
Br485      Br  0.93434894  0.83749215  0.85265801    -0.01020
Br486      Br  0.00168652  0.77528641  0.84182636    -0.01010
C487        C  0.04054100  0.80138859  0.76837941    -0.02130
C488        C  0.03653755  0.76041775  0.76553265     0.07550
C489        C  0.06696461  0.73826550  0.78209325    -0.02250
C490        C  0.10168647  0.75571366  0.79123566    -0.02250
C491        C  0.10347197  0.79523436  0.79707046     0.07680
C492        C  0.07174069  0.81772198  0.78770023    -0.02440
Br493      Br  0.06970895  0.87069170  0.80311736    -0.00990
Br494      Br  0.00526304  0.83737822  0.74598353    -0.01060
Br495      Br  0.14733742  0.72481485  0.79395363    -0.01020
Br496      Br  0.06291940  0.68732759  0.80326816    -0.01010
C497        C  0.19962789  0.96256371  0.23495595    -0.02130
C498        C  0.24050666  0.96388734  0.24041874     0.07550
C499        C  0.26120448  0.93165497  0.22500448    -0.02250
C500        C  0.24174310  0.89820848  0.21479821    -0.02250
C501        C  0.20278366  0.89944145  0.20651164     0.07680
C502        C  0.18233306  0.93271284  0.21447190    -0.02440
Br503      Br  0.13044200  0.93798204  0.19640279    -0.00990
Br504      Br  0.16408931  0.99754690  0.25824731    -0.01060
Br505      Br  0.26899267  0.85019502  0.21259618    -0.01020
Br506      Br  0.31313883  0.93125152  0.20602033    -0.01010
C507        C  0.21190971  0.06587869  0.18107429    -0.02130
C508        C  0.20445015  0.09971660  0.20096842     0.07550
C509        C  0.21328181  0.10151154  0.23993460    -0.02250
C510        C  0.22341060  0.06825115  0.25985665    -0.02250
C511        C  0.23958710  0.03610727  0.23951261     0.07680
C512        C  0.23312468  0.03649191  0.19858788    -0.02440
Br513      Br  0.25561509  0.00055248  0.16324367    -0.00990
Br514      Br  0.19216016  0.05912501  0.12980556    -0.01060
Br515      Br  0.20232366  0.06855079  0.31130705    -0.01020
Br516      Br  0.21215411  0.14975520  0.26677319    -0.01010
C517        C  0.93572289  0.73523896  0.22614292    -0.02130
C518        C  0.96613050  0.75601691  0.24553902     0.07550
C519        C  0.95953760  0.79685237  0.24559083    -0.02250
C520        C  0.92647721  0.81328962  0.22802380    -0.02250
C521        C  0.89502415  0.79039818  0.21763761     0.07680
C522        C  0.89928328  0.75098653  0.22185213    -0.02440
Br523      Br  0.85578682  0.71715863  0.22060942    -0.00990
Br524      Br  0.94153385  0.69198474  0.19168202    -0.01860
Br525      Br  0.92676198  0.86677956  0.21336123    -0.01020
Br526      Br  0.99696543  0.83363867  0.26042593    -0.01010
C527        C  0.07982658  0.75332764  0.25209346    -0.02130
C528        C  0.04094781  0.75504650  0.23822628     0.07550
C529        C  0.03651680  0.77559146  0.20233097    -0.02250
C530        C  0.06570425  0.79915475  0.18769296    -0.02250
C531        C  0.10207927  0.79831479  0.20358677     0.07680
C532        C  0.10942459  0.77458635  0.23480977    -0.02440
Br533      Br  0.16176175  0.77068468  0.25286201    -0.00990
Br534      Br  0.09792947  0.72103831  0.29241243    -0.01060
Br535      Br  0.05639035  0.83307708  0.14482237    -0.01020
Br536      Br  0.99621044  0.76686110  0.16568813    -0.01010
C537        C  0.77960538  0.92107515  0.18693094    -0.02130
C538        C  0.79122515  0.89102609  0.21083017     0.07550
C539        C  0.78585305  0.89548589  0.25033024    -0.02250
C540        C  0.77660626  0.93163147  0.26618408    -0.02250
C541        C  0.76050619  0.96189807  0.24241945     0.07680
C542        C  0.75953258  0.95270885  0.20198214    -0.02440
Br543      Br  0.73501322  0.98332761  0.16349472    -0.00990
Br544      Br  0.79586876  0.92216553  0.13388911    -0.01060
Br545      Br  0.78440860  0.93227713  0.32092405    -0.01020
Br546      Br  0.78614402  0.85014074  0.28254349    -0.01010
C547        C  0.77134435  0.10836792  0.22931159    -0.02130
C548        C  0.79675605  0.10297604  0.19922075     0.07550
C549        C  0.80949611  0.06623470  0.19101664    -0.02250
C550        C  0.79681182  0.03449097  0.21263941    -0.02250
C551        C  0.76473174  0.03775482  0.23884224     0.07680
C552        C  0.75604033  0.07680295  0.24954372    -0.02440
Br553      Br  0.72324156  0.09143240  0.29082680    -0.00990
Br554      Br  0.75612220  0.16029782  0.24103387    -0.01060
Br555      Br  0.83412648  0.99329729  0.21235054    -0.01020
Br556      Br  0.84685865  0.06031220  0.15079274    -0.01010
C557        C  0.90077440  0.20746596  0.23870488    -0.02130
C558        C  0.89896349  0.20149670  0.19914833     0.07550
C559        C  0.93171988  0.20807171  0.17727126    -0.02250
C560        C  0.96346100  0.22684196  0.19353673    -0.02250
C561        C  0.96620761  0.23303675  0.23451754     0.07680
C562        C  0.93571240  0.21571860  0.25633633    -0.02440
Br563      Br  0.93995016  0.19115459  0.30624035    -0.00990
Br564      Br  0.85525710  0.20494032  0.26969000    -0.01060
Br565      Br  0.99809026  0.24802157  0.15616064    -0.01020
Br566      Br  0.93318347  0.19106086  0.12464593    -0.01010
C567        C  0.07116188  0.17936727  0.20419069    -0.02130
C568        C  0.10346089  0.20101628  0.19498272     0.07550
C569        C  0.10254883  0.24036181  0.20199501    -0.02250
C570        C  0.06848412  0.25817460  0.21348596    -0.02250
C571        C  0.03853929  0.23629035  0.23196766     0.07680
C572        C  0.04122904  0.19546936  0.22575184    -0.02440
Br573      Br  0.00790540  0.15820472  0.24894698    -0.00990
Br574      Br  0.06725937  0.12732747  0.18608094    -0.01060
Br575      Br  0.06388748  0.30911991  0.19157247    -0.01020
Br576      Br  0.14828584  0.27069871  0.19675460    -0.01010
C577        C  0.23750574  0.27761968  0.43168562    -0.02130
C578        C  0.26003328  0.26476835  0.46386262     0.07550
C579        C  0.30019748  0.27352034  0.46080665    -0.02250
C580        C  0.31450352  0.29363284  0.42883723    -0.02250
C581        C  0.29317714  0.29599806  0.39499577     0.07680
C582        C  0.25497498  0.28500915  0.39637577    -0.02440
Br583      Br  0.22586576  0.27884685  0.35024692    -0.00990
Br584      Br  0.18669028  0.29916593  0.43362319    -0.01060
Br585      Br  0.36185277  0.32087018  0.43290639    -0.01020
Br586      Br  0.33885056  0.25576891  0.49609896    -0.01010
C587        C  0.26895768  0.30589998  0.53850082    -0.02130
C588        C  0.26339169  0.26498495  0.53675677     0.07550
C589        C  0.27975297  0.24390164  0.56828171    -0.02250
C590        C  0.28769505  0.26230074  0.60258486    -0.02250
C591        C  0.29606511  0.30115452  0.60282226     0.07680
C592        C  0.28848742  0.32271249  0.56970007    -0.02440
Br593      Br  0.30420096  0.37548893  0.56736556    -0.00990
Br594      Br  0.24695132  0.34144004  0.50220079    -0.01060
Br595      Br  0.28366177  0.23371306  0.64944376    -0.01020
Br596      Br  0.30494599  0.19459961  0.56652812    -0.01010
C597        C  0.70504971  0.28640900  0.46295566    -0.02130
C598        C  0.73709069  0.26021575  0.46091937     0.07550
C599        C  0.75060201  0.25242300  0.42258718    -0.02250
C600        C  0.73457730  0.27031069  0.39004571    -0.02250
C601        C  0.70552260  0.29699470  0.39390238     0.07680
C602        C  0.69176096  0.30596082  0.43008606    -0.02440
Br603      Br  0.65326168  0.34554466  0.43354887    -0.00990
Br604      Br  0.67105212  0.29279845  0.50573603    -0.01060
Br605      Br  0.75181846  0.25831451  0.33875848    -0.01020
Br606      Br  0.78834549  0.21483469  0.41058361    -0.01010
C607        C  0.73325239  0.31688008  0.57569483    -0.02130
C608        C  0.71134808  0.29697653  0.60319391     0.07550
C609        C  0.70754661  0.25745512  0.59774418    -0.02250
C610        C  0.71514474  0.24199369  0.56161345    -0.02250
C611        C  0.74310350  0.25993644  0.53664129     0.07680
C612        C  0.75599507  0.29618663  0.55012699    -0.02440
Br613      Br  0.80839669  0.30471635  0.56348729    -0.00990
Br614      Br  0.73411855  0.37146469  0.57064023    -0.01060
Br615      Br  0.67866163  0.20267020  0.54810129    -0.01020
Br616      Br  0.69542673  0.22295648  0.63929575    -0.01010
C617        C  0.17474161  0.22482440  0.47859540    -0.02130
C618        C  0.19736632  0.24972798  0.50246819     0.07550
C619        C  0.17550077  0.27331085  0.52862191    -0.02250
C620        C  0.13541683  0.27639196  0.52468720    -0.02250
C621        C  0.11498887  0.24971240  0.50283791     0.07680
C622        C  0.13540999  0.22095489  0.48410954    -0.02440
Br623      Br  0.11144316  0.17365703  0.46887008    -0.00990
Br624      Br  0.19434130  0.19638535  0.43535450    -0.01060
Br625      Br  0.10757192  0.31382434  0.55447612    -0.01020
Br626      Br  0.19354211  0.29594290  0.57587974    -0.01010
C627        C  0.97925386  0.28268552  0.67454090    -0.02130
C628        C  0.00819214  0.26143711  0.69583344     0.07550
C629        C  0.03666113  0.24419496  0.67136818    -0.02250
C630        C  0.02929088  0.23720969  0.63231190    -0.02250
C631        C  0.00101983  0.25762448  0.61299719     0.07680
C632        C  0.97731828  0.28181560  0.63393302    -0.02440
Br633      Br  0.93881074  0.31060537  0.60625772    -0.00990
Br634      Br  0.93816537  0.31162216  0.69723679    -0.01060
Br635      Br  0.06094108  0.20171151  0.60410184    -0.01020
Br636      Br  0.09050790  0.24008779  0.68140334    -0.01010
C637        C  0.97239301  0.26852961  0.36145475    -0.02130
C638        C  0.00232774  0.25243668  0.38197997     0.07550
C639        C  0.03225033  0.23530249  0.36223636    -0.02250
C640        C  0.03181938  0.23177730  0.32180599    -0.02250
C641        C  0.00210937  0.24985341  0.29901697     0.07680
C642        C  0.97260091  0.26900142  0.32108859    -0.02440
Br643      Br  0.92821464  0.29373185  0.29922821    -0.00990
Br644      Br  0.92939842  0.28829394  0.38979686    -0.01060
Br645      Br  0.07634624  0.20514906  0.30280522    -0.01020
Br646      Br  0.07664269  0.22101300  0.39157981    -0.01010
C647        C  0.86695802  0.22355020  0.50860681    -0.02130
C648        C  0.88463214  0.25740009  0.49693172     0.07550
C649        C  0.86102401  0.28705336  0.48274699    -0.02250
C650        C  0.82055573  0.28244922  0.48151401    -0.02250
C651        C  0.80296392  0.24663339  0.49199073     0.07680
C652        C  0.82981903  0.21592805  0.49745537    -0.02440
Br653      Br  0.82669258  0.16434860  0.47718291    -0.00990
Br654      Br  0.89212796  0.18612607  0.54092105    -0.01060
Br655      Br  0.79139946  0.32708400  0.46661923    -0.01020
Br656      Br  0.88317699  0.33528359  0.46786472    -0.01010
C657        C  0.96497861  0.75657603  0.64058837    -0.02130
C658        C  0.99866889  0.75263798  0.61967316     0.07550
C659        C  0.03262659  0.76341807  0.63768326    -0.02250
C660        C  0.03441749  0.76660640  0.67810918    -0.02250
C661        C  0.00088056  0.75860864  0.70111688     0.07680
C662        C  0.96663847  0.76511551  0.67993021    -0.02440
Br663      Br  0.93207024  0.80570287  0.69413295    -0.00990
Br664      Br  0.91710499  0.76008527  0.61394755    -0.01060
Br665      Br  0.08344023  0.78496956  0.69643856    -0.01020
Br666      Br  0.07541400  0.77800044  0.60595871    -0.01010
C667        C  0.01637140  0.70383848  0.33113760    -0.02130
C668        C  0.01224487  0.73733775  0.30636520     0.07550
C669        C  0.01266534  0.77202713  0.32723986    -0.02250
C670        C  0.99992999  0.77319733  0.36546253    -0.02250
C671        C  0.99840607  0.73951553  0.38818003     0.07680
C672        C  0.00451412  0.70461969  0.36953698    -0.02440
Br673      Br  0.99195588  0.65619916  0.39382025    -0.00990
Br674      Br  0.04309351  0.65627793  0.31919597    -0.01060
Br675      Br  0.98670256  0.82295706  0.38482941    -0.01020
Br676      Br  0.05633984  0.80519340  0.32214264    -0.01010
C677        C  0.72560866  0.76687694  0.43172068    -0.02130
C678        C  0.74135397  0.74434327  0.46307506     0.07550
C679        C  0.74265073  0.70377512  0.45568619    -0.02250
C680        C  0.72248708  0.68780395  0.42489033    -0.02250
C681        C  0.71226588  0.71010251  0.39345480     0.07680
C682        C  0.71741852  0.74953321  0.39610153    -0.02440
Br683      Br  0.71790356  0.77929473  0.34945494    -0.00990
Br684      Br  0.71711812  0.82133920  0.42999162    -0.01060
Br685      Br  0.70110947  0.63760539  0.43074957    -0.01020
Br686      Br  0.76691297  0.66611451  0.48745595    -0.01010
C687        C  0.70388350  0.71773921  0.53557964    -0.02130
C688        C  0.73590290  0.74399959  0.53830370     0.07550
C689        C  0.74411407  0.75720435  0.57670663    -0.02250
C690        C  0.72633891  0.74076882  0.60895819    -0.02250
C691        C  0.70106676  0.71046324  0.60461406     0.07680
C692        C  0.69043229  0.69845622  0.56822829    -0.02440
Br693      Br  0.65455301  0.65669274  0.56372231    -0.00990
Br694      Br  0.66701591  0.71517306  0.49384240    -0.01060
Br695      Br  0.73876665  0.75725121  0.66046765    -0.01020
Br696      Br  0.78170757  0.79500094  0.58925445    -0.01010
C697        C  0.82205811  0.72395994  0.52935758    -0.02130
C698        C  0.80254896  0.74732109  0.50075917     0.07550
C699        C  0.82591017  0.75832544  0.46814595    -0.02250
C700        C  0.86578763  0.75401395  0.46877546    -0.02250
C701        C  0.88382715  0.73829603  0.50054922     0.07680
C702        C  0.86207219  0.71906409  0.52795799    -0.02440
Br703      Br  0.88768275  0.68322372  0.56190008    -0.00990
Br704      Br  0.79891892  0.69352985  0.56983007    -0.01060
Br705      Br  0.89705374  0.76986740  0.42575062    -0.01020
Br706      Br  0.80838697  0.78600279  0.42357596    -0.01010
C707        C  0.72654878  0.17603165  0.47437149    -0.02130
C708        C  0.74921581  0.19749692  0.50113362     0.07550
C709        C  0.76365958  0.17650227  0.53395419    -0.02250
C710        C  0.75941763  0.13675286  0.53606461    -0.02250
C711        C  0.74564687  0.11657930  0.50465827     0.07680
C712        C  0.72870603  0.13604212  0.47409929    -0.02440
Br713      Br  0.70800949  0.10748119  0.43157675    -0.00990
Br714      Br  0.68418666  0.19619361  0.44494822    -0.01060
Br715      Br  0.77205665  0.10951242  0.58227076    -0.01020
Br716      Br  0.79193380  0.19927571  0.57623090    -0.01010
C717        C  0.78444779  0.86879073  0.49114058    -0.02130
C718        C  0.75077912  0.88804345  0.50039722     0.07550
C719        C  0.71932197  0.86636221  0.51318959    -0.02250
C720        C  0.72148949  0.82597908  0.51471643    -0.02250
C721        C  0.75653511  0.80602310  0.50594895     0.07680
C722        C  0.78914019  0.83067250  0.50148611    -0.02440
Br723      Br  0.83960234  0.82306302  0.52323596    -0.00990
Br724      Br  0.82520525  0.89288990  0.46262327    -0.01060
Br725      Br  0.67365332  0.80160726  0.52637710    -0.01020
Br726      Br  0.67107727  0.89079910  0.52525189    -0.01010
C727        C  0.72855794  0.97078650  0.67759043    -0.02130
C728        C  0.75011259  0.99803934  0.70005471     0.07550
C729        C  0.77406131  0.02358846  0.67808969    -0.02250
C730        C  0.78011334  0.01707766  0.63892222    -0.02250
C731        C  0.75335137  0.99628807  0.61759257     0.07680
C732        C  0.72751348  0.97300083  0.63736366    -0.02440
Br733      Br  0.69333894  0.94003135  0.60936538    -0.00990
Br734      Br  0.70181523  0.92722041  0.69910235    -0.01060
Br735      Br  0.82701028  0.03532729  0.61623259    -0.01020
Br736      Br  0.79293309  0.07340937  0.69280704    -0.01010
C737        C  0.77788480  0.01625299  0.32357904    -0.02130
C738        C  0.74327850  0.00755818  0.30295837     0.07550
C739        C  0.70971522  0.00689949  0.32700250    -0.02250
C740        C  0.71243159  0.99973163  0.36640366    -0.02250
C741        C  0.74674293  0.00630609  0.38619017     0.07680
C742        C  0.77930478  0.01599613  0.36429077    -0.02440
Br743      Br  0.82789115  0.02625909  0.38904563    -0.00990
Br744      Br  0.82588299  0.02656392  0.29907861    -0.01060
Br745      Br  0.66733872  0.97966534  0.39155773    -0.01020
Br746      Br  0.66026900  0.02910967  0.31472719    -0.01010
C747        C  0.27229929  0.68169534  0.42524850    -0.02130
C748        C  0.29130182  0.70326061  0.39766398     0.07550
C749        C  0.29068129  0.74314722  0.40022658    -0.02250
C750        C  0.27546145  0.76180481  0.43280516    -0.02250
C751        C  0.25630111  0.74026749  0.46291153     0.07680
C752        C  0.25250765  0.69968707  0.45536841    -0.02440
Br753      Br  0.22386729  0.66455145  0.48632073    -0.00990
Br754      Br  0.27760316  0.62648249  0.42417722    -0.01060
Br755      Br  0.27886079  0.81688853  0.42850934    -0.01020
Br756      Br  0.30819778  0.77227977  0.35613229    -0.01010
C757        C  0.25636573  0.75296536  0.57654553    -0.02130
C758        C  0.26266475  0.73991794  0.53778000     0.07550
C759        C  0.29283213  0.71157787  0.53427223    -0.02250
C760        C  0.30506813  0.69025664  0.56623726    -0.02250
C761        C  0.29572802  0.70184781  0.60301858     0.07680
C762        C  0.27262944  0.73380076  0.60825689    -0.02440
Br763      Br  0.26042144  0.74869407  0.66022205    -0.00990
Br764      Br  0.22442099  0.79516900  0.59046845    -0.01060
Br765      Br  0.33733504  0.64586605  0.56028326    -0.01020
Br766      Br  0.32973831  0.70818101  0.49285691    -0.01010
C767        C  0.17458270  0.72509158  0.53084480    -0.02130
C768        C  0.19494189  0.74618199  0.50121943     0.07550
C769        C  0.17150482  0.75787802  0.46886964    -0.02250
C770        C  0.13132111  0.75582935  0.47002988    -0.02250
C771        C  0.11273732  0.74139327  0.50216294     0.07680
C772        C  0.13419194  0.72300054  0.53062887    -0.02440
Br773      Br  0.10729742  0.69315874  0.56901937    -0.00990
Br774      Br  0.19706345  0.69318908  0.57048989    -0.01060
Br775      Br  0.10047024  0.77313491  0.42715384    -0.01020
Br776      Br  0.19045609  0.78175105  0.42292123    -0.01010
C777        C  0.22476061  0.13772843  0.52584542    -0.02130
C778        C  0.25284438  0.11775443  0.50548087     0.07550
C779        C  0.28022903  0.13937860  0.48561599    -0.02250
C780        C  0.27394343  0.17848077  0.47829942    -0.02250
C781        C  0.24912730  0.20027935  0.50292417     0.07680
C782        C  0.22697060  0.17761720  0.52943412    -0.02440
Br783      Br  0.20073722  0.19813257  0.57357375    -0.00990
Br784      Br  0.18313512  0.11157392  0.55055861    -0.01060
Br785      Br  0.29429303  0.19386009  0.42915878    -0.01020
Br786      Br  0.32755488  0.11715184  0.46890038    -0.01010
C787        C  0.27745579  0.97469894  0.63694327    -0.02130
C788        C  0.25013681  0.99673387  0.61756061     0.07550
C789        C  0.22279598  0.01647404  0.63917366    -0.02250
C790        C  0.22742296  0.02103244  0.67896639    -0.02250
C791        C  0.25340592  0.99674896  0.70010042     0.07680
C792        C  0.27707015  0.97202851  0.67713173    -0.02440
Br793      Br  0.30751412  0.93079776  0.69821602    -0.00990
Br794      Br  0.31376547  0.94446248  0.60849214    -0.01060
Br795      Br  0.20203741  0.06654476  0.69751773    -0.01020
Br796      Br  0.17770784  0.03740977  0.61513206    -0.01010
C797        C  0.27820206  0.02639164  0.36660192    -0.02130
C798        C  0.25216896  0.00388274  0.38691603     0.07550
C799        C  0.22697957  0.98043979  0.36647339    -0.02250
C800        C  0.23172710  0.97486829  0.32687599    -0.02250
C801        C  0.25442078  0.00135947  0.30454828     0.07680
C802        C  0.27663356  0.02834780  0.32649426    -0.02440
Br803      Br  0.30376932  0.07131140  0.30421621    -0.00990
Br804      Br  0.31560001  0.05653484  0.39339327    -0.01060
Br805      Br  0.21315221  0.92501235  0.31099478    -0.01020
Br806      Br  0.18686853  0.95319309  0.39282631    -0.01010
C807        C  0.21480096  0.86686520  0.49371170    -0.02130
C808        C  0.24922517  0.88594061  0.50136773     0.07550
C809        C  0.28079488  0.86331982  0.51272223    -0.02250
C810        C  0.27829222  0.82272317  0.51319378    -0.02250
C811        C  0.24276254  0.80320584  0.50570452     0.07680
C812        C  0.21034149  0.82842107  0.50338704    -0.02440
Br813      Br  0.16132356  0.82079520  0.52822170    -0.00990
Br814      Br  0.17152093  0.89145122  0.46979277    -0.01060
Br815      Br  0.32595512  0.79681120  0.52157349    -0.01020
Br816      Br  0.32907566  0.88682179  0.52585073    -0.01010
C817        C  0.43155800  0.27469558  0.23435144    -0.02130
C818        C  0.46170423  0.25729655  0.25722445     0.07550
C819        C  0.45346856  0.25520541  0.29764083    -0.02250
C820        C  0.42273218  0.27545908  0.31387591    -0.02250
C821        C  0.39281708  0.28933405  0.29103816     0.07680
C822        C  0.39634689  0.28543247  0.25124465    -0.02440
Br823      Br  0.35085013  0.29025238  0.21986942    -0.00990
Br824      Br  0.43155525  0.28255279  0.17961177    -0.01060
Br825      Br  0.42580121  0.28925338  0.36720663    -0.01020
Br826      Br  0.48454376  0.22849831  0.33437993    -0.01010
C827        C  0.53479402  0.29315661  0.28474835    -0.02130
C828        C  0.53706151  0.26131848  0.25826842     0.07550
C829        C  0.57529353  0.25234198  0.24563886    -0.02250
C830        C  0.60762594  0.26927259  0.26286153    -0.02250
C831        C  0.60359249  0.29438657  0.29350769     0.07680
C832        C  0.56730606  0.30574702  0.30478927    -0.02440
Br833      Br  0.56281246  0.34130992  0.34684705    -0.00990
Br834      Br  0.49388599  0.33059170  0.28688144    -0.01060
Br835      Br  0.65865422  0.25665657  0.24622142    -0.01020
Br836      Br  0.58701302  0.21523351  0.20683943    -0.01010
C837        C  0.42597197  0.72550519  0.32308006    -0.02130
C838        C  0.40322504  0.69637070  0.30618658     0.07550
C839        C  0.41797506  0.68082168  0.27237580    -0.02250
C840        C  0.44132047  0.70280205  0.24810293    -0.02250
C841        C  0.46525762  0.73259191  0.26417619     0.07680
C842        C  0.46010606  0.73764554  0.30477859    -0.02440
Br843      Br  0.49561240  0.76536359  0.33656578    -0.00990
Br844      Br  0.41182020  0.75394491  0.36834053    -0.01060
Br845      Br  0.44052749  0.68278167  0.19618304    -0.01020
Br846      Br  0.41713735  0.62576924  0.26562694    -0.01010
C847        C  0.54136664  0.69823963  0.27394315    -0.02130
C848        C  0.53694846  0.73835633  0.26398918     0.07550
C849        C  0.56781052  0.76222779  0.27741445    -0.02250
C850        C  0.60310372  0.74581930  0.28687973    -0.02250
C851        C  0.60534353  0.70760109  0.29844322     0.07680
C852        C  0.57275526  0.68507823  0.29542618    -0.02440
Br853      Br  0.57183455  0.63512786  0.31941438    -0.00990
Br854      Br  0.51320316  0.65672372  0.25191518    -0.01060
Br855      Br  0.64854850  0.77574886  0.28043349    -0.01020
Br856      Br  0.56494715  0.81495389  0.29412520    -0.01010
C857        C  0.53191143  0.13395555  0.27075478    -0.02130
C858        C  0.50075442  0.11292070  0.25764260     0.07550
C859        C  0.46670998  0.13186866  0.25003638    -0.02250
C860        C  0.46607691  0.17187111  0.24550744    -0.02250
C861        C  0.49930767  0.19497309  0.25412292     0.07680
C862        C  0.53009210  0.17428091  0.27285058    -0.02440
Br863      Br  0.56712812  0.19520500  0.30839226    -0.00990
Br864      Br  0.57738564  0.10673085  0.28612513    -0.01060
Br865      Br  0.42008770  0.19000198  0.22106592    -0.01020
Br866      Br  0.42077456  0.10200704  0.24525992    -0.01010
C867        C  0.63718456  0.02562096  0.21922706    -0.02130
C868        C  0.61659602  0.99596427  0.23633287     0.07550
C869        C  0.63597949  0.96476015  0.25152085    -0.02250
C870        C  0.67580609  0.96598442  0.25654427    -0.02250
C871        C  0.69839470  0.99853096  0.24395866     0.07680
C872        C  0.67756990  0.02648006  0.22106931    -0.02440
Br873      Br  0.69915120  0.06510428  0.18760649    -0.00990
Br874      Br  0.60889496  0.06622673  0.19415945    -0.01060
Br875      Br  0.69414956  0.92446108  0.28793780    -0.01020
Br876      Br  0.60637039  0.92076857  0.26785071    -0.01010
C877        C  0.36722655  0.98365751  0.28283246    -0.02130
C878        C  0.38726715  0.00063677  0.25246632     0.07550
C879        C  0.36553921  0.01819906  0.22308662    -0.02250
C880        C  0.32624332  0.02454546  0.22834939    -0.02250
C881        C  0.30481324  0.00027454  0.25401744     0.07680
C882        C  0.32798284  0.97715405  0.27924962    -0.02440
Br883      Br  0.30975345  0.93322360  0.30744845    -0.00990
Br884      Br  0.39123178  0.97027837  0.33082137    -0.01060
Br885      Br  0.31005722  0.07285921  0.20634317    -0.01020
Br886      Br  0.38795036  0.03594671  0.17551862    -0.01010
C887        C  0.52194193  0.86224160  0.21566049    -0.02130
C888        C  0.49853068  0.88316794  0.24005473     0.07550
C889        C  0.47348213  0.86340070  0.26420682    -0.02250
C890        C  0.46943362  0.82324695  0.26213319    -0.02250
C891        C  0.49743553  0.79999484  0.24226931     0.07680
C892        C  0.52377315  0.82194237  0.21860099    -0.02440
Br893      Br  0.56792166  0.80076135  0.19343847    -0.00990
Br894      Br  0.55475182  0.88961342  0.18034319    -0.01060
Br895      Br  0.42012743  0.80741950  0.28166375    -0.01020
Br896      Br  0.44221068  0.89226224  0.29934397    -0.01010
C897        C  0.43536913  0.24398813  0.71843093    -0.02130
C898        C  0.46643826  0.26593678  0.73407460     0.07550
C899        C  0.46366550  0.30674228  0.72721986    -0.02250
C900        C  0.43176294  0.32265374  0.70821478    -0.02250
C901        C  0.39891943  0.30065836  0.70249865     0.07680
C902        C  0.40053093  0.26164378  0.71071018    -0.02440
Br903      Br  0.35487450  0.23178096  0.71500358    -0.00990
Br904      Br  0.43818197  0.19396332  0.69469693    -0.01060
Br905      Br  0.43273620  0.37505014  0.69078577    -0.01020
Br906      Br  0.49858616  0.34401958  0.74786779    -0.01010
C907        C  0.54037209  0.27416615  0.69466106    -0.02130
C908        C  0.53828678  0.26825754  0.73577445     0.07550
C909        C  0.56940632  0.28490987  0.75695411    -0.02250
C910        C  0.60358711  0.29359420  0.73839566    -0.02250
C911        C  0.60396545  0.30182383  0.69914487     0.07680
C912        C  0.57095222  0.29444310  0.67786997    -0.02440
Br913      Br  0.56735322  0.31237143  0.62559675    -0.00990
Br914      Br  0.50594563  0.25141321  0.65816895    -0.01060
Br915      Br  0.65007810  0.29141987  0.76757680    -0.01020
Br916      Br  0.56699710  0.30888125  0.80697263    -0.01010
C917        C  0.48697069  0.21478334  0.13301655    -0.02130
C918        C  0.50169479  0.24636491  0.11349289     0.07550
C919        C  0.51955394  0.27522549  0.13499730    -0.02250
C920        C  0.51700477  0.27493261  0.17541854    -0.02250
C921        C  0.50450841  0.24109112  0.19574973     0.07680
C922        C  0.49663862  0.20901284  0.17124955    -0.02440
Br923      Br  0.51823666  0.15847646  0.17657433    -0.00990
Br924      Br  0.45522292  0.17712369  0.10837371    -0.01060
Br925      Br  0.52718573  0.32367170  0.19858928    -0.01020
Br926      Br  0.54855998  0.31500453  0.10967162    -0.01010
C927        C  0.63430137  0.22074084  0.01329540    -0.02130
C928        C  0.61368062  0.25031273  0.99593541     0.07550
C929        C  0.63281856  0.27722416  0.97312575    -0.02250
C930        C  0.67273827  0.27590760  0.96962852    -0.02250
C931        C  0.69493533  0.24794977  0.99019967     0.07680
C932        C  0.67361776  0.21746738  0.00729095    -0.02440
Br933      Br  0.69266416  0.16630522  0.01348772    -0.00990
Br934      Br  0.60913491  0.18481416  0.04722275    -0.01060
Br935      Br  0.69388408  0.30980550  0.93169590    -0.01020
Br936      Br  0.60421601  0.31559201  0.94500496    -0.01010
C937        C  0.32158191  0.22345691  0.00760998    -0.02130
C938        C  0.30352119  0.26008086  0.00321512     0.07550
C939        C  0.32851424  0.29237411  0.00323424    -0.02250
C940        C  0.36670979  0.28809203  0.99422446    -0.02250
C941        C  0.38488491  0.25260836  0.99997794     0.07680
C942        C  0.36184001  0.22049641  0.00906137    -0.02440
Br943      Br  0.38388460  0.17164868  0.02235886    -0.00990
Br944      Br  0.29269412  0.17614879  0.00803615    -0.01060
Br945      Br  0.39172567  0.33336999  0.97425461    -0.01020
Br946      Br  0.32024222  0.33951901  0.03067554    -0.01010
C947        C  0.47372279  0.27433020  0.82234634    -0.02130
C948        C  0.50221025  0.25321748  0.80067885     0.07550
C949        C  0.53021562  0.23293862  0.82375309    -0.02250
C950        C  0.52951969  0.23369477  0.86408437    -0.02250
C951        C  0.50188752  0.25455233  0.88347022     0.07680
C952        C  0.47492460  0.27542516  0.86283763    -0.02440
Br953      Br  0.43680735  0.30313842  0.89159446    -0.00990
Br954      Br  0.42726575  0.29740675  0.80283710    -0.01060
Br955      Br  0.56867451  0.20795792  0.89390461    -0.01020
Br956      Br  0.57351225  0.20582357  0.80309158    -0.01010
C957        C  0.47573825  0.13905956  0.77104381    -0.02130
C958        C  0.50232516  0.11944180  0.74901719     0.07550
C959        C  0.52833399  0.13997196  0.72679777    -0.02250
C960        C  0.53080138  0.18020407  0.72901678    -0.02250
C961        C  0.50288767  0.20204553  0.75053311     0.07680
C962        C  0.47513554  0.17932120  0.77146444    -0.02440
Br963      Br  0.43198688  0.20029800  0.79862346    -0.00990
Br964      Br  0.43699372  0.10978304  0.79784370    -0.01060
Br965      Br  0.57802861  0.19901867  0.70688959    -0.01020
Br966      Br  0.56257621  0.11183712  0.69412225    -0.01010
C967        C  0.63602639  0.97513252  0.77375566    -0.02130
C968        C  0.61629376  0.99751243  0.74661601     0.07550
C969        C  0.63772969  0.01740343  0.71939837    -0.02250
C970        C  0.67685874  0.02306950  0.72502643    -0.02250
C971        C  0.69901569  0.99830683  0.74969512     0.07680
C972        C  0.67642499  0.97198689  0.77260347    -0.02440
Br973      Br  0.69475763  0.92643774  0.79818984    -0.00990
Br974      Br  0.60699654  0.94395766  0.80938327    -0.01060
Br975      Br  0.69663273  0.06776445  0.69915647    -0.01020
Br976      Br  0.61553191  0.03387129  0.67155185    -0.01010
C977        C  0.36562574  0.98774815  0.78240014    -0.02130
C978        C  0.38604278  0.00891270  0.75519377     0.07550
C979        C  0.36543557  0.02976269  0.72779591    -0.02250
C980        C  0.32522582  0.02853930  0.72741648    -0.02250
C981        C  0.30435295  0.00073624  0.75011834     0.07680
C982        C  0.32753919  0.97775210  0.77545351    -0.02440
Br983      Br  0.31641314  0.92701272  0.79481063    -0.00990
Br984      Br  0.38724908  0.97556950  0.83179636    -0.01060
Br985      Br  0.30138424  0.06885430  0.69770332    -0.01020
Br986      Br  0.39225895  0.06472942  0.69416317    -0.01010
C987        C  0.42853679  0.68586789  0.71039266    -0.02130
C988        C  0.39505872  0.70661382  0.70407129     0.07550
C989        C  0.39584626  0.74608072  0.71008524    -0.02250
C990        C  0.43041170  0.76443330  0.71838328    -0.02250
C991        C  0.46134648  0.74328874  0.73581235     0.07680
C992        C  0.45918665  0.70240081  0.73039402    -0.02440
Br993      Br  0.49366824  0.66575203  0.75306249    -0.00990
Br994      Br  0.43426891  0.63599065  0.68831831    -0.01060
Br995      Br  0.43415873  0.81363272  0.69276858    -0.01020
Br996      Br  0.34986131  0.77597519  0.70616819    -0.01010
C997        C  0.56456385  0.72651752  0.76156796    -0.02130
C998        C  0.53344342  0.74146459  0.73886692     0.07550
C999        C  0.53623433  0.73374098  0.69824817    -0.02250
C1000       C  0.56817589  0.71475554  0.68317920    -0.02250
C1001       C  0.60113900  0.71061994  0.70544352     0.07680
C1002       C  0.59964251  0.71908525  0.74439746    -0.02440
Br1003     Br  0.64549901  0.72015359  0.77511510    -0.00990
Br1004     Br  0.56119970  0.70213269  0.81150555    -0.01060
Br1005     Br  0.56658515  0.69406958  0.63189627    -0.01020
Br1006     Br  0.50132038  0.75273713  0.65983285    -0.01010
C1007       C  0.52647181  0.82952379  0.72966817    -0.02130
C1008       C  0.49760993  0.80765840  0.75032235     0.07550
C1009       C  0.46910910  0.83023172  0.76989827    -0.02250
C1010       C  0.46927849  0.87029343  0.76838167    -0.02250
C1011       C  0.49815416  0.89000362  0.74975300     0.07680
C1012       C  0.52626565  0.86996341  0.73012251    -0.02440
Br1013     Br  0.56670132  0.89951727  0.70604563    -0.00990
Br1014     Br  0.57163837  0.81001161  0.70464894    -0.01060
Br1015     Br  0.42736222  0.89908922  0.78895299    -0.01020
Br1016     Br  0.42604385  0.80916476  0.79732221    -0.01010
C1017       C  0.47042301  0.76186184  0.13446120    -0.02130
C1018       C  0.49978327  0.74392577  0.11497504     0.07550
C1019       C  0.52789985  0.72441201  0.13550443    -0.02250
C1020       C  0.52890861  0.72515230  0.17604844    -0.02250
C1021       C  0.49919658  0.74460889  0.19750928     0.07680
C1022       C  0.46908424  0.76122910  0.17455820    -0.02440
Br1023     Br  0.42188318  0.77994348  0.19513820    -0.00990
Br1024     Br  0.43002586  0.78570544  0.10528633    -0.01060
Br1025     Br  0.57624341  0.70430506  0.19609235    -0.01020
Br1026     Br  0.56778540  0.69971934  0.10675982    -0.01010
C1027       C  0.52412556  0.77894306  0.82473598    -0.02130
C1028       C  0.49680453  0.75770794  0.80195158     0.07550
C1029       C  0.46983802  0.73490501  0.82366842    -0.02250
C1030       C  0.47419579  0.73007509  0.86357903    -0.02250
C1031       C  0.49914999  0.75319957  0.88465028     0.07680
C1032       C  0.52352077  0.77802466  0.86506445    -0.02440
Br1033     Br  0.55992324  0.80807344  0.89382388    -0.00990
Br1034     Br  0.56722754  0.80653490  0.80374536    -0.01060
Br1035     Br  0.44444217  0.69151518  0.88963088    -0.01020
Br1036     Br  0.42154087  0.71435995  0.80564406    -0.01010
C1037       C  0.36450277  0.72193613  0.98258869    -0.02130
C1038       C  0.38527486  0.75172956  0.99966095     0.07550
C1039       C  0.36441060  0.78163467  0.01657819    -0.02250
C1040       C  0.32549108  0.77651761  0.02460575    -0.02250
C1041       C  0.30322047  0.75068901  0.00159326     0.07680
C1042       C  0.32523443  0.72592692  0.97715908    -0.02440
Br1043     Br  0.30483149  0.69754880  0.93417677    -0.00990
Br1044     Br  0.38742031  0.67432116  0.96698471    -0.01060
Br1045     Br  0.31120841  0.79901975  0.07300773    -0.01020
Br1046     Br  0.38690195  0.83048744  0.02859362    -0.01010
C1047       C  0.67859876  0.77460540  0.99170026    -0.02130
C1048       C  0.69796044  0.73881260  0.99852075     0.07550
C1049       C  0.67301562  0.70590071  0.99921631    -0.02250
C1050       C  0.63407714  0.70989247  0.00649001    -0.02250
C1051       C  0.61553853  0.74494512  0.99967025     0.07680
C1052       C  0.63828515  0.77700380  0.99044253    -0.02440
Br1053     Br  0.61523925  0.82575465  0.97743366    -0.00990
Br1054     Br  0.70443997  0.82297735  0.98786447    -0.01060
Br1055     Br  0.60762825  0.66482444  0.02520739    -0.01020
Br1056     Br  0.68259916  0.65623087  0.97611589    -0.01010
C1057       C  0.29613134  0.45783820  0.25914842    -0.02130
C1058       C  0.25523098  0.46377909  0.26139817     0.07550
C1059       C  0.23471020  0.43023766  0.27551320    -0.02250
C1060       C  0.25432704  0.39582698  0.28405063    -0.02250
C1061       C  0.29357101  0.39532000  0.29047629     0.07680
C1062       C  0.31443459  0.42707201  0.27834962    -0.02440
Br1063     Br  0.36806643  0.43032564  0.29112770    -0.00990
Br1064     Br  0.33105378  0.49131263  0.23347055    -0.01060
Br1065     Br  0.22862022  0.34711270  0.28017462    -0.01020
Br1066     Br  0.18025883  0.42295004  0.28191211    -0.01010
C1067       C  0.28294028  0.54090348  0.29512957    -0.02130
C1068       C  0.25191325  0.54097653  0.26787858     0.07550
C1069       C  0.23519762  0.57872185  0.26233087    -0.02250
C1070       C  0.25609723  0.61220713  0.26993385    -0.02250
C1071       C  0.28983759  0.61045567  0.29062282     0.07680
C1072       C  0.30304543  0.57487815  0.30352094    -0.02440
Br1073     Br  0.34836052  0.57326881  0.33517721    -0.00990
Br1074     Br  0.29216677  0.50089739  0.33260490    -0.01060
Br1075     Br  0.23828444  0.66160600  0.25240412    -0.01020
Br1076     Br  0.18136214  0.59055873  0.26450872    -0.01010
C1077       C  0.70281152  0.46615629  0.28339314    -0.02130
C1078       C  0.73333243  0.46362583  0.25551238     0.07550
C1079       C  0.74014809  0.42515710  0.24160527    -0.02250
C1080       C  0.72394597  0.39295177  0.25985511    -0.02250
C1081       C  0.70117800  0.39730130  0.29213372     0.07680
C1082       C  0.69111949  0.43373798  0.30424018    -0.02440
Br1083     Br  0.65887833  0.43873826  0.34877324    -0.00990
Br1084     Br  0.66537551  0.50694856  0.28654534    -0.01060
Br1085     Br  0.73506946  0.34139421  0.24291832    -0.01020
Br1086     Br  0.77128233  0.41187176  0.19851990    -0.01010
C1087       C  0.72267595  0.57058355  0.23309540    -0.02130
C1088       C  0.73894641  0.53932410  0.25563078     0.07550
C1089       C  0.74068778  0.54679245  0.29620250    -0.02250
C1090       C  0.72075886  0.57745530  0.31258688    -0.02250
C1091       C  0.70895938  0.60854540  0.29047967     0.07680
C1092       C  0.71243282  0.60574524  0.25064908    -0.02440
Br1093     Br  0.70638434  0.65199755  0.22029443    -0.00990
Br1094     Br  0.71766155  0.57313076  0.17805159    -0.01060
Br1095     Br  0.70219070  0.57191678  0.36401852    -0.01020
Br1096     Br  0.76652022  0.51541928  0.33334262    -0.01010
C1097       C  0.16799430  0.51603782  0.21663992    -0.02130
C1098       C  0.19177551  0.50613301  0.24872580     0.07550
C1099       C  0.17240251  0.50513446  0.28463926    -0.02250
C1100       C  0.13218031  0.50250418  0.28634458    -0.02250
C1101       C  0.11005147  0.50169889  0.25214049     0.07680
C1102       C  0.12899141  0.50822965  0.21703570    -0.02440
Br1103     Br  0.10338413  0.50915582  0.16773965    -0.00990
Br1104     Br  0.18245165  0.55398066  0.17809645    -0.01060
Br1105     Br  0.10944170  0.49760561  0.33676388    -0.01020
Br1106     Br  0.19942265  0.50618830  0.33268199    -0.01010
C1107       C  0.02249610  0.62907804  0.22890592    -0.02130
C1108       C  0.99504543  0.61040292  0.25132721     0.07550
C1109       C  0.96833616  0.63149169  0.27196438    -0.02250
C1110       C  0.97020997  0.67152924  0.27227522    -0.02250
C1111       C  0.00048262  0.69177073  0.25215458     0.07680
C1112       C  0.02455017  0.66924410  0.22770625    -0.02440
Br1113     Br  0.05849209  0.68895692  0.18882707    -0.00990
Br1114     Br  0.06063006  0.59892151  0.20278406    -0.01060
Br1115     Br  0.93178965  0.69663113  0.30405498    -0.01020
Br1116     Br  0.93100906  0.60515890  0.30316399    -0.01010
C1117       C  0.02911793  0.32241619  0.26954332    -0.02130
C1118       C  0.00114535  0.29995052  0.24864877     0.07550
C1119       C  0.97174372  0.32201751  0.22905838    -0.02250
C1120       C  0.97043543  0.36226950  0.23216423    -0.02250
C1121       C  0.99718357  0.38204663  0.25409888     0.07680
C1122       C  0.02652687  0.36240551  0.27228576    -0.02440
Br1123     Br  0.06537906  0.39162351  0.29891842    -0.00990
Br1124     Br  0.07516912  0.30174949  0.29211678    -0.01060
Br1125     Br  0.92943352  0.39165742  0.20853011    -0.01020
Br1126     Br  0.92802390  0.30257921  0.20135864    -0.01010
C1127       C  0.86002037  0.47064878  0.27654743    -0.02130
C1128       C  0.88164916  0.49932980  0.25930679     0.07550
C1129       C  0.86391910  0.53101458  0.24306239    -0.02250
C1130       C  0.82398078  0.53314088  0.24137145    -0.02250
C1131       C  0.80024148  0.50113152  0.25295488     0.07680
C1132       C  0.81980040  0.47121756  0.27430172    -0.02440
Br1133     Br  0.79653446  0.43183966  0.30567992    -0.00990
Br1134     Br  0.88686021  0.42878065  0.30121049    -0.01060
Br1135     Br  0.80621231  0.57944772  0.21712504    -0.01020
Br1136     Br  0.89524106  0.56929346  0.21769902    -0.01010
C1137       C  0.02537809  0.67391222  0.72114248    -0.02130
C1138       C  0.00128404  0.69683489  0.74551478     0.07550
C1139       C  0.97836473  0.67467122  0.77201901    -0.02250
C1140       C  0.97232387  0.63542593  0.76690032    -0.02250
C1141       C  0.99539582  0.61426497  0.74260373     0.07680
C1142       C  0.02206486  0.63349207  0.71981845    -0.02440
Br1143     Br  0.05667047  0.60337180  0.68888966    -0.00990
Br1144     Br  0.07112532  0.69236881  0.69771725    -0.01060
Br1145     Br  0.93041762  0.61065309  0.79250304    -0.01020
Br1146     Br  0.96166771  0.69127873  0.82201230    -0.01010
C1147       C  0.97151630  0.36175691  0.77388078    -0.02130
C1148       C  0.99867926  0.38436442  0.75508365     0.07550
C1149       C  0.03092612  0.36715084  0.73986019    -0.02250
C1150       C  0.03544578  0.32743253  0.74135245    -0.02250
C1151       C  0.00517422  0.30250565  0.75378169     0.07680
C1152       C  0.97481459  0.32129425  0.77433989    -0.02440
Br1153     Br  0.93863027  0.29532622  0.80649211    -0.00990
Br1154     Br  0.92821617  0.38681672  0.79684464    -0.01060
Br1155     Br  0.08739536  0.31154750  0.73495796    -0.01020
Br1156     Br  0.07108459  0.39904839  0.71931771    -0.01010
C1157       C  0.71637273  0.40230811  0.73896489    -0.02130
C1158       C  0.70449097  0.40183178  0.70098580     0.07550
C1159       C  0.70284585  0.43628515  0.68059617    -0.02250
C1160       C  0.71974562  0.46957311  0.69593413    -0.02250
C1161       C  0.73270999  0.47015142  0.73550177     0.07680
C1162       C  0.72161353  0.43708897  0.75731536    -0.02440
Br1163     Br  0.69686408  0.43743351  0.80697664    -0.00990
Br1164     Br  0.72462488  0.35575561  0.76705815    -0.01060
Br1165     Br  0.72864547  0.50953849  0.65829114    -0.01020
Br1166     Br  0.67786682  0.43725830  0.63129494    -0.01010
C1167       C  0.69540739  0.54638282  0.73447315    -0.02130
C1168       C  0.73635665  0.54267793  0.73677457     0.07550
C1169       C  0.75768668  0.57327467  0.71906133    -0.02250
C1170       C  0.73991612  0.60802465  0.71083544    -0.02250
C1171       C  0.70056738  0.60922644  0.70500888     0.07680
C1172       C  0.67855842  0.57728901  0.71490646    -0.02440
Br1173     Br  0.62551933  0.57463919  0.70004511    -0.00990
Br1174     Br  0.66004283  0.51217664  0.75935442    -0.01060
Br1175     Br  0.77028164  0.65408043  0.70802374    -0.01020
Br1176     Br  0.80665511  0.56945737  0.69363844    -0.01010
C1177       C  0.82334219  0.52756483  0.77168956    -0.02130
C1178       C  0.79979498  0.50487028  0.74672200     0.07550
C1179       C  0.82048550  0.47964255  0.72125002    -0.02250
C1180       C  0.86075283  0.47712896  0.72305473    -0.02250
C1181       C  0.88125265  0.49682649  0.75130560     0.07680
C1182       C  0.86133085  0.51830880  0.77823214    -0.02440
Br1183     Br  0.88314232  0.53160429  0.82733853    -0.00990
Br1184     Br  0.80744354  0.57423679  0.79625584    -0.01060
Br1185     Br  0.88800804  0.44137622  0.69050299    -0.01020
Br1186     Br  0.79904709  0.44709458  0.68258467    -0.01010
C1187       C  0.72154071  0.48888997  0.13239570    -0.02130
C1188       C  0.75482284  0.49911132  0.11180867     0.07550
C1189       C  0.78755056  0.50853868  0.13245490    -0.02250
C1190       C  0.78994730  0.49902361  0.17090652    -0.02250
C1191       C  0.75603928  0.49670311  0.19410754     0.07680
C1192       C  0.72160051  0.48925049  0.17293679    -0.02440
Br1193     Br  0.67245689  0.48257337  0.19654252    -0.00990
Br1194     Br  0.67394465  0.47744206  0.10638507    -0.01060
Br1195     Br  0.83764988  0.47218816  0.17976899    -0.01020
Br1196     Br  0.83080226  0.53421308  0.10966532    -0.01010
C1197       C  0.77569457  0.47088873  0.85975421    -0.02130
C1198       C  0.75584229  0.49676781  0.88224715     0.07550
C1199       C  0.73384644  0.52537016  0.86486162    -0.02250
C1200       C  0.73397421  0.53047414  0.82470842    -0.02250
C1201       C  0.75275359  0.50299078  0.79994483     0.07680
C1202       C  0.77419662  0.47315138  0.81957614    -0.02440
Br1203     Br  0.80138681  0.43204079  0.79401591    -0.00990
Br1204     Br  0.80223310  0.42937864  0.88482907    -0.01060
Br1205     Br  0.71353389  0.58012462  0.81010345    -0.01020
Br1206     Br  0.70448495  0.55953783  0.89729611    -0.01010
C1207       C  0.74595161  0.66773593  0.03406970    -0.02130
C1208       C  0.75612157  0.69228899  0.00209708     0.07550
C1209       C  0.77602021  0.67296897  0.97114314    -0.02250
C1210       C  0.77618012  0.63251004  0.96874935    -0.02250
C1211       C  0.76157702  0.61005413  0.99841508     0.07680
C1212       C  0.74977916  0.62762933  0.03209630    -0.02440
Br1213     Br  0.73608745  0.59538189  0.07505236    -0.00990
Br1214     Br  0.72016212  0.68438380  0.07966833    -0.01060
Br1215     Br  0.79580115  0.60669524  0.92397679    -0.01020
Br1216     Br  0.80904826  0.69654581  0.93341347    -0.01010
C1217       C  0.78418635  0.35691532  0.98445208    -0.02130
C1218       C  0.75934579  0.37932890  0.00588395     0.07550
C1219       C  0.73306794  0.36050606  0.02919329    -0.02250
C1220       C  0.72776773  0.32036781  0.02693732    -0.02250
C1221       C  0.74853941  0.29699816  0.99961779     0.07680
C1222       C  0.77449401  0.31904650  0.97557987    -0.02440
Br1223     Br  0.78709306  0.31043594  0.92200639    -0.00990
Br1224     Br  0.83195252  0.37736265  0.96608999    -0.01060
Br1225     Br  0.68437178  0.30377864  0.05634676    -0.01020
Br1226     Br  0.70704999  0.39035177  0.06762714    -0.01010
C1227       C  0.26187162  0.39260930  0.73094901    -0.02130
C1228       C  0.29349694  0.39724767  0.70736485     0.07550
C1229       C  0.30460334  0.43374228  0.69607723    -0.02250
C1230       C  0.28342280  0.46584929  0.70732396    -0.02250
C1231       C  0.25609646  0.46323620  0.73845707     0.07680
C1232       C  0.24333321  0.42473462  0.74672559    -0.02440
Br1233     Br  0.20281113  0.41203256  0.78131654    -0.00990
Br1234     Br  0.24614377  0.34103908  0.74355166    -0.01060
Br1235     Br  0.28535731  0.50600202  0.66852518    -0.01020
Br1236     Br  0.34767793  0.43913894  0.66195200    -0.01010
C1237       C  0.29610795  0.54551902  0.74442910    -0.02130
C1238       C  0.25556724  0.53829362  0.74179688     0.07550
C1239       C  0.23402626  0.56880440  0.72331617    -0.02250
C1240       C  0.25213456  0.60332469  0.71204570    -0.02250
C1241       C  0.29188618  0.60562845  0.70923570     0.07680
C1242       C  0.31343626  0.57540162  0.72377505    -0.02440
Br1243     Br  0.36624141  0.57054267  0.70924171    -0.00990
Br1244     Br  0.33223274  0.51412859  0.77148243    -0.01060
Br1245     Br  0.22245030  0.64940389  0.70350664    -0.01020
Br1246     Br  0.17971483  0.57039149  0.71440107    -0.01010
C1247       C  0.16791533  0.49956815  0.78901056    -0.02130
C1248       C  0.19304141  0.49543698  0.75672896     0.07550
C1249       C  0.17353986  0.48625168  0.72132523    -0.02250
C1250       C  0.13314715  0.48814562  0.71825067    -0.02250
C1251       C  0.11086510  0.50044373  0.74954241     0.07680
C1252       C  0.12985070  0.50960117  0.78372735    -0.02440
Br1253     Br  0.10585430  0.53821445  0.82444164    -0.00990
Br1254     Br  0.17545986  0.47803098  0.83991305    -0.01060
Br1255     Br  0.10951882  0.47764536  0.66904343    -0.01020
Br1256     Br  0.19887379  0.47256717  0.67449778    -0.01010
C1257       C  0.22724280  0.47437126  0.17661080    -0.02130
C1258       C  0.24639602  0.50208055  0.20046550     0.07550
C1259       C  0.27029841  0.52840829  0.17927750    -0.02250
C1260       C  0.27477202  0.52438760  0.13905117    -0.02250
C1261       C  0.24835411  0.50307052  0.11746715     0.07680
C1262       C  0.22207134  0.48094197  0.13736755    -0.02440
Br1263     Br  0.17545807  0.46369400  0.11321145    -0.00990
Br1264     Br  0.20494501  0.42730374  0.19300192    -0.01060
Br1265     Br  0.31630883  0.54996921  0.11369168    -0.01020
Br1266     Br  0.29771532  0.57145330  0.20008659    -0.01010
C1267       C  0.28283887  0.63880737  0.02390749    -0.02130
C1268       C  0.25393031  0.61809353  0.00546724     0.07550
C1269       C  0.22375312  0.63896346  0.98866729    -0.02250
C1270       C  0.22842669  0.67793530  0.98112104    -0.02250
C1271       C  0.25351452  0.70022859  0.00494070     0.07680
C1272       C  0.27840031  0.67819779  0.02946993    -0.02440
Br1273     Br  0.30602269  0.69923110  0.07261931    -0.00990
Br1274     Br  0.32904807  0.61511905  0.04195594    -0.01060
Br1275     Br  0.20710406  0.69142233  0.93162389    -0.01020
Br1276     Br  0.17479629  0.61681027  0.97573429    -0.01010
C1277       C  0.24840147  0.36990822  0.96429235    -0.02130
C1278       C  0.24284687  0.38922314  0.99826527     0.07550
C1279       C  0.23450436  0.36875059  0.03136352    -0.02250
C1280       C  0.23266008  0.32844399  0.03107667    -0.02250
C1281       C  0.24697638  0.30732191  0.99813971     0.07680
C1282       C  0.25543866  0.33051960  0.96479410    -0.02440
Br1283     Br  0.28136326  0.31388003  0.91946855    -0.00990
Br1284     Br  0.24607476  0.39817596  0.91686640    -0.01060
Br1285     Br  0.21411275  0.30872748  0.07962893    -0.01020
Br1286     Br  0.23209980  0.39661252  0.07870165    -0.01010
C1287       C  0.24165201  0.53708226  0.86663854    -0.02130
C1288       C  0.25971266  0.50779371  0.88652685     0.07550
C1289       C  0.28068534  0.48105421  0.86579530    -0.02250
C1290       C  0.27411315  0.47598151  0.82605433    -0.02250
C1291       C  0.25041253  0.50281088  0.80456030     0.07680
C1292       C  0.23816266  0.53590505  0.82640496    -0.02440
Br1293     Br  0.21056796  0.57904687  0.80588692    -0.00990
Br1294     Br  0.22273580  0.57998948  0.89564724    -0.01060
Br1295     Br  0.30246323  0.43285178  0.80614380    -0.01020
Br1296     Br  0.32186295  0.45432272  0.89172188    -0.01010
loop_ 
_geom_bond_atom_site_label_1 
_geom_bond_atom_site_label_2 
_geom_bond_distance 
_geom_bond_site_symmetry_2 
_ccdc_geom_bond_type 
O1           Ni9   1.906   1_556  S
O1           C11   1.275       .  A
O2           Ni9   1.910       .  S
O2           C12   1.277       .  A
O3           Ni9   1.934       .  S
O3           C13   1.286   1_554  A
O4           Ni9   1.932       .  S
O4           C14   1.285       .  A
O5          Ni10   1.885       .  S
O5           C14   1.271       .  A
O6          Ni10   1.898   1_556  S
O6           C13   1.273       .  A
O7          Ni10   1.931       .  S
O7           C12   1.285       .  A
O8          Ni10   1.937   1_556  S
O8           C11   1.288       .  A
Ni9         Ni10   2.382       .  S
C11        C1288   1.489       .  S
C12        C1261   1.495       .  S
C13        C1278   1.471       .  S
C14        C1268   1.491       .  S
C15        C1231   1.608       .  S
C15        C1238   1.614       .  S
C15        C1248   1.612       .  S
C15        C1291   1.615       .  S
O16         Ni24   1.894       .  S
O16          C26   1.274       .  A
O17         Ni24   1.883   1_554  S
O17          C27   1.270       .  A
O18         Ni24   1.938       .  S
O18          C28   1.287       .  A
O19         Ni24   1.943   1_554  S
O19          C29   1.289       .  A
O20         Ni25   1.913       .  S
O20          C29   1.277   1_556  A
O21         Ni25   1.913       .  S
O21          C28   1.277       .  A
O22         Ni25   1.921   1_554  S
O22          C27   1.285       .  A
O23         Ni25   1.931       .  S
O23          C26   1.286       .  A
Ni24        Ni25   2.382       .  S
C26        C1198   1.479       .  S
C27        C1188   1.487       .  S
C28        C1211   1.486       .  S
C29        C1218   1.503       .  S
C30        C1161   1.602       .  S
C30        C1168   1.583       .  S
C30        C1178   1.597       .  S
C30        C1201   1.607       .  S
O31         Ni39   1.909       .  S
O31          C41   1.281       .  A
O32         Ni39   1.923   1_455  S
O32          C42   1.281       .  A
O33         Ni39   1.922       .  S
O33          C43   1.282       .  A
O34         Ni39   1.914       .  S
O34          C44   1.278       .  A
O35         Ni40   1.931       .  S
O35          C44   1.286       .  A
O36         Ni40   1.920       .  S
O36          C43   1.280       .  A
O37         Ni40   1.907   1_455  S
O37          C42   1.279       .  A
O38         Ni40   1.901       .  S
O38          C41   1.276       .  A
Ni39        Ni40   2.381       .  S
C41        C1181   1.482       .  S
C42        C1251   1.503       .  S
C43        C1148   1.482       .  S
C44        C1141   1.491       .  S
O45         Ni53   1.903       .  S
O45          C55   1.277       .  A
O46         Ni53   1.902   1_455  S
O46          C56   1.274       .  A
O47         Ni53   1.920       .  S
O47          C57   1.283       .  A
O48         Ni53   1.923       .  S
O48          C58   1.283       .  A
O49         Ni54   1.894       .  S
O49          C58   1.275       .  A
O50         Ni54   1.899       .  S
O50          C57   1.276       .  A
O51         Ni54   1.910   1_455  S
O51          C56   1.279       .  A
O52         Ni54   1.913       .  S
O52          C55   1.282       .  A
Ni53        Ni54   2.384       .  S
C55        C1128   1.467       .  S
C56        C1101   1.502       .  S
C57        C1108   1.471       .  S
C58        C1121   1.474       .  S
C59        C1078   1.614       .  S
C59        C1088   1.616       .  S
C59        C1131   1.604       .  S
C59        C1191   1.596       .  S
C60        C1058   1.631       .  S
C60        C1068   1.627       .  S
C60        C1098   1.588       .  S
C60        C1258   1.612       .  S
O61         Ni69   1.911       .  S
O61          C71   1.279       .  A
O62         Ni69   1.914   1_554  S
O62          C72   1.279       .  A
O63         Ni69   1.911       .  S
O63          C73   1.280   1_556  A
O64         Ni69   1.905       .  S
O64          C74   1.278       .  A
O65         Ni70   1.920       .  S
O65          C74   1.280   1_554  A
O66         Ni70   1.917       .  S
O66          C73   1.279       .  A
O67         Ni70   1.916       .  S
O67          C72   1.281       .  A
O68         Ni70   1.921   1_556  S
O68          C71   1.283       .  A
Ni69        Ni70   2.377   1_556  S
C71        C1031   1.491       .  S
C72        C1018   1.479       .  S
C73        C1038   1.494   1_554  S
C74        C1051   1.502       .  S
C75         C991   1.599       .  S
C75         C998   1.594       .  S
C75        C1008   1.603       .  S
C75        C1028   1.602       .  S
O76         Ni84   1.905   1_565  S
O76          C86   1.277       .  A
O77         Ni84   1.915       .  S
O77          C87   1.280       .  A
O78         Ni84   1.930       .  S
O78          C88   1.284       .  A
O79         Ni84   1.921       .  S
O79          C89   1.284       .  A
O80         Ni85   1.919       .  S
O80          C89   1.280       .  A
O81         Ni85   1.918       .  S
O81          C88   1.281       .  A
O82         Ni85   1.919       .  S
O82          C87   1.282       .  A
O83         Ni85   1.924   1_565  S
O83          C86   1.283       .  A
Ni84        Ni85   2.383       .  S
C86        C1011   1.477       .  S
C87         C958   1.485       .  S
C88         C968   1.502   1_545  S
C89         C978   1.494       .  S
O90         Ni98   1.908       .  S
O90         C100   1.280       .  A
O91         Ni98   1.918       .  S
O91         C101   1.279       .  A
O92         Ni98   1.910       .  S
O92         C102   1.280       .  A
O93         Ni98   1.917   1_554  S
O93         C103   1.282       .  A
O94         Ni99   1.905   1_554  S
O94         C103   1.277       .  A
O95         Ni99   1.921       .  S
O95         C102   1.282       .  A
O96         Ni99   1.897       .  S
O96         C101   1.277       .  A
O97         Ni99   1.903   1_554  S
O97         C100   1.277   1_554  A
Ni98        Ni99   2.380       .  S
C100        C928   1.476       .  S
C101        C941   1.495       .  S
C102        C951   1.481       .  S
C103        C918   1.485       .  S
C104        C898   1.598       .  S
C104        C908   1.601       .  S
C104        C948   1.609       .  S
C104        C961   1.608       .  S
O105       Ni113   1.911       .  S
O105        C115   1.277   1_545  A
O106       Ni113   1.901       .  S
O106        C116   1.275   1_545  A
O107       Ni113   1.939       .  S
O107        C117   1.287       .  A
O108       Ni113   1.936   1_565  S
O108        C118   1.286       .  A
O109       Ni114   1.912       .  S
O109        C118   1.279       .  A
O110       Ni114   1.909   1_545  S
O110        C117   1.276       .  A
O111       Ni114   1.934       .  S
O111        C116   1.285       .  A
O112       Ni114   1.926       .  S
O112        C115   1.285       .  A
Ni113      Ni114   2.383   1_545  S
C115        C868   1.483       .  S
C116        C878   1.501   1_565  S
C117        C858   1.483       .  S
C118        C888   1.496       .  S
C119        C841   1.611       .  S
C119        C848   1.608       .  S
C119        C891   1.625       .  S
C119       C1021   1.599       .  S
C120        C818   1.614       .  S
C120        C828   1.609       .  S
C120        C861   1.611       .  S
C120        C921   1.603       .  S
O121       Ni129   1.910       .  S
O121        C131   1.278   1_545  A
O122       Ni129   1.910       .  S
O122        C132   1.279       .  A
O123       Ni129   1.917   1_565  S
O123        C133   1.281       .  A
O124       Ni129   1.918       .  S
O124        C134   1.281       .  A
O125       Ni130   1.924       .  S
O125        C134   1.281       .  A
O126       Ni130   1.924   1_565  S
O126        C133   1.280       .  A
O127       Ni130   1.915       .  S
O127        C132   1.281       .  A
O128       Ni130   1.918       .  S
O128        C131   1.282   1_545  A
Ni129      Ni130   2.375       .  S
C131        C788   1.492       .  S
C132        C798   1.486       .  S
C133        C808   1.510       .  S
C134        C778   1.499       .  S
C135        C751   1.614       .  S
C135        C758   1.611       .  S
C135        C768   1.616       .  S
C135        C811   1.613       .  S
O136       Ni144   1.905       .  S
O136        C146   1.276   1_545  A
O137       Ni144   1.913       .  S
O137        C147   1.278       .  A
O138       Ni144   1.921       .  S
O138        C148   1.282       .  A
O139       Ni144   1.906   1_565  S
O139        C149   1.279       .  A
O140       Ni145   1.903   1_565  S
O140        C149   1.275       .  A
O141       Ni145   1.896       .  S
O141        C148   1.275       .  A
O142       Ni145   1.916       .  S
O142        C147   1.281       .  A
O143       Ni145   1.924   1_565  S
O143        C146   1.284       .  A
Ni144      Ni145   2.377       .  S
C146        C731   1.491       .  S
C147        C741   1.507       .  S
C148        C711   1.463       .  S
C149        C718   1.490       .  S
C150        C678   1.606       .  S
C150        C688   1.603       .  S
C150        C698   1.609       .  S
C150        C721   1.605       .  S
O151       Ni159   1.894       .  S
O151        C161   1.273       .  A
O152       Ni159   1.901   1_455  S
O152        C162   1.274       .  A
O153       Ni159   1.944       .  S
O153        C163   1.287       .  A
O154       Ni159   1.933       .  S
O154        C164   1.287       .  A
O155       Ni160   1.908       .  S
O155        C164   1.274       .  A
O156       Ni160   1.908       .  S
O156        C163   1.277       .  A
O157       Ni160   1.942   1_455  S
O157        C162   1.289       .  A
O158       Ni160   1.933       .  S
O158        C161   1.287       .  A
Ni159      Ni160   2.382       .  S
C161        C701   1.479       .  S
C162        C771   1.488       .  S
C163        C658   1.484       .  S
C164        C671   1.511       .  S
O165       Ni173   1.925       .  S
O165        C175   1.282       .  A
O166       Ni173   1.923   1_455  S
O166        C176   1.281       .  A
O167       Ni173   1.911   1_455  S
O167        C177   1.278       .  A
O168       Ni173   1.908       .  S
O168        C178   1.281       .  A
O169       Ni174   1.937   1_655  S
O169        C178   1.282       .  A
O170       Ni174   1.928       .  S
O170        C177   1.284       .  A
O171       Ni174   1.925       .  S
O171        C176   1.283       .  A
O172       Ni174   1.921       .  S
O172        C175   1.282   1_455  A
Ni173      Ni174   2.379   1_655  S
C175        C631   1.490   1_655  S
C176        C638   1.488       .  S
C177        C621   1.494       .  S
C178        C648   1.503       .  S
C179        C598   1.604       .  S
C179        C611   1.606       .  S
C179        C651   1.616       .  S
C179        C708   1.575       .  S
C180        C578   1.598       .  S
C180        C588   1.592       .  S
C180        C618   1.604       .  S
C180        C781   1.598       .  S
C181        C561   1.607   1_455  S
C181        C571   1.612       .  S
C181        C641   1.612       .  S
C181       C1118   1.607       .  S
C182        C541   1.624   1_545  S
C182        C551   1.621       .  S
C182        C738   1.617       .  S
C182        C871   1.613   1_545  S
C183        C518   1.640   1_455  S
C183        C528   1.612       .  S
C183        C668   1.635       .  S
C183       C1111   1.576       .  S
C184        C498   1.593   1_545  S
C184        C511   1.596       .  S
C184        C801   1.592       .  S
C184        C881   1.598       .  S
C185        C478   1.607   1_455  S
C185        C488   1.577       .  S
C185        C661   1.629       .  S
C185       C1138   1.614       .  S
C186        C458   1.593       .  S
C186        C468   1.594   1_565  S
C186        C791   1.590       .  S
C186        C981   1.600   1_565  S
C187        C441   1.634   1_455  S
C187        C448   1.595       .  S
C187        C628   1.633       .  S
C187       C1151   1.600       .  S
C188        C418   1.602       .  S
C188        C431   1.606   1_565  S
C188        C728   1.597       .  S
C188        C971   1.611       .  S
C189        C401   1.626       .  S
C189        C408   1.610   1_556  S
C189        C938   1.575   1_556  S
C189       C1281   1.597       .  S
C190        C381   1.586   1_554  S
C190        C388   1.596       .  S
C190       C1041   1.590       .  S
C190       C1271   1.586       .  S
C191        C361   1.588       .  S
C191        C368   1.622   1_556  S
C191        C931   1.583       .  S
C191       C1221   1.632       .  S
C192        C338   1.618   1_554  S
C192        C348   1.631       .  S
C192       C1048   1.607   1_554  S
C192       C1208   1.613       .  S
C193        C371   1.490       .  S
C193        C194   1.410       .  A
C193        C198   1.405       .  A
C194        C195   1.403       .  A
C194        H199   1.084       .  S
C195        C548   1.488       .  S
C195        C196   1.400       .  A
C196        C197   1.405       .  A
C196        H200   1.084       .  S
C197        C558   1.492       .  S
C197        C198   1.410       .  A
C198        H201   1.083       .  S
C202        C391   1.486       .  S
C202        C203   1.399       .  A
C202        C207   1.406       .  A
C203        C204   1.403       .  A
C203        H208   1.084       .  S
C204        C501   1.484       .  S
C204        C205   1.404       .  A
C205        C206   1.402       .  A
C205        H209   1.084       .  S
C206        C531   1.484       .  S
C206        C207   1.403       .  A
C207        H210   1.084       .  S
C211        C451   1.525       .  S
C211        C212   1.410       .  A
C211        C216   1.421       .  A
C212        C213   1.401       .  A
C212        H217   1.075       .  S
C213        C471   1.485       .  S
C213        C214   1.404       .  A
C214        C215   1.398       .  A
C214        H218   1.084       .  S
C215        C398   1.496       .  S
C215        C216   1.412       .  A
C216        H219   1.081       .  S
C220        C521   1.517       .  S
C220        C221   1.417       .  A
C220        C225   1.408       .  A
C221        C222   1.414       .  A
C221        H226   1.081       .  S
C222        C351   1.523       .  S
C222        C223   1.413       .  A
C223        C224   1.412       .  A
C223        H227   1.082       .  S
C224        C538   1.514       .  S
C224        C225   1.411       .  A
C225        H228   1.082       .  S
C229        C378   1.476       .  S
C229        C230   1.397       .  A
C229        C234   1.399       .  A
C230        C231   1.402       .  A
C230        H235   1.084       .  S
C231        C491   1.485       .  S
C231        C232   1.405       .  A
C232        C233   1.406       .  A
C232        H236   1.083       .  S
C233        C461   1.484       .  S
C233        C234   1.396       .  A
C234        H237   1.084       .  S
C238        C358   1.497       .  S
C238        C239   1.405       .  A
C238        C243   1.411       .  A
C239        C240   1.409       .  A
C239        H244   1.084       .  S
C240        C438   1.490       .  S
C240        C241   1.409       .  A
C241        C242   1.408       .  A
C241        H245   1.084       .  S
C242        C428   1.503       .  S
C242        C243   1.408       .  A
C243        H246   1.084       .  S
C247        C341   1.479       .  S
C247        C248   1.402       .  A
C247        C252   1.401       .  A
C248        C249   1.403       .  A
C248        H253   1.084       .  S
C249        C421   1.492       .  S
C249        C250   1.410       .  A
C250        C251   1.404       .  A
C250        H254   1.084       .  S
C251        C481   1.483       .  S
C251        C252   1.403       .  A
C252        H255   1.084       .  S
C256        C411   1.488       .  S
C256        C257   1.398       .  A
C256        C261   1.410       .  A
C257        C258   1.400       .  A
C257        H262   1.084       .  S
C258        C508   1.485       .  S
C258        C259   1.406       .  A
C259        C260   1.405       .  A
C259        H263   1.084       .  S
C260        C568   1.500       .  S
C260        C261   1.409       .  A
C261        H264   1.083       .  S
C265       C1228   1.477       .  S
C265        C266   1.403       .  A
C265        C270   1.401       .  A
C266        C267   1.406       .  A
C266        H271   1.084       .  S
C267        C901   1.491       .  S
C267        C268   1.408       .  A
C268        C269   1.408       .  A
C268        H272   1.084       .  S
C269        C591   1.488       .  S
C269        C270   1.399       .  A
C270        H273   1.084       .  S
C274       C1081   1.478       .  S
C274        C275   1.403       .  A
C274        C279   1.401       .  A
C275        C276   1.402       .  A
C275        H280   1.084       .  S
C276        C831   1.484       .  S
C276        C277   1.404       .  A
C277        C278   1.407       .  A
C277        H281   1.084       .  S
C278        C601   1.481       .  S
C278        C279   1.402       .  A
C279        H282   1.084       .  S
C283       C1071   1.485       .  S
C283        C284   1.399       .  A
C283        C288   1.393       .  A
C284        C285   1.424       .  A
C284        H289   1.077       .  S
C285        C838   1.535       .  S
C285        C286   1.418       .  A
C286        C287   1.407       .  A
C286        H290   1.071       .  S
C287        C748   1.494       .  S
C287        C288   1.397       .  A
C288        H291   1.084       .  S
C292       C1061   1.511       .  S
C292        C293   1.412       .  A
C292        C297   1.410       .  A
C293        C294   1.415       .  A
C293        H298   1.081       .  S
C294        C821   1.514       .  S
C294        C295   1.412       .  A
C295        C296   1.407       .  A
C295        H299   1.083       .  S
C296        C581   1.495       .  S
C296        C297   1.406       .  A
C297        H300   1.084       .  S
C301        C988   1.491       .  S
C301        C302   1.410       .  A
C301        C306   1.400       .  A
C302        C303   1.415       .  A
C302        H307   1.083       .  S
C303       C1241   1.503       .  S
C303        C304   1.408       .  A
C304        C305   1.399       .  A
C304        H308   1.084       .  S
C305        C761   1.478       .  S
C305        C306   1.398       .  A
C306        H309   1.084       .  S
C310       C1158   1.477       .  S
C310        C311   1.402       .  A
C310        C315   1.399       .  A
C311        C312   1.408       .  A
C311        H316   1.081       .  S
C312        C608   1.506       .  S
C312        C313   1.416       .  A
C313        C314   1.406       .  A
C313        H317   1.081       .  S
C314        C911   1.495       .  S
C314        C315   1.400       .  A
C315        H318   1.084       .  S
C319        C681   1.497       .  S
C319        C320   1.412       .  A
C319        C324   1.405       .  A
C320        C321   1.413       .  A
C320        H325   1.083       .  S
C321       C1091   1.506       .  S
C321        C322   1.408       .  A
C322        C323   1.406       .  A
C322        H326   1.084       .  S
C323        C851   1.491       .  S
C323        C324   1.402       .  A
C324        H327   1.084       .  S
C328       C1171   1.481       .  S
C328        C329   1.399       .  A
C328        C333   1.404       .  A
C329        C330   1.401       .  A
C329        H334   1.083       .  S
C330       C1001   1.478       .  S
C330        C331   1.401       .  A
C331        C332   1.399       .  A
C331        H335   1.084       .  S
C332        C691   1.472       .  S
C332        C333   1.398       .  A
C333        H336   1.084       .  S
C337        C338   1.459       .  A
C337        C342   1.416       .  A
C337       Br344   1.922       .  S
C338        C339   1.457       .  A
C339        C340   1.413       .  A
C339       Br346   1.948   1_556  S
C340        C341   1.395       .  A
C340       Br345   1.940       .  S
C341        C342   1.391       .  A
C342       Br343   1.947       .  S
C347        C348   1.451       .  A
C347        C352   1.424       .  A
C347       Br354   1.925       .  S
C348        C349   1.464       .  A
C349        C350   1.428       .  A
C349       Br356   1.942       .  S
C350        C351   1.406       .  A
C350       Br355   1.949       .  S
C351        C352   1.407       .  A
C352       Br353   1.942       .  S
C357        C358   1.409       .  A
C357        C362   1.423       .  A
C357       Br364   1.927       .  S
C358        C359   1.394       .  A
C359        C360   1.399       .  A
C359       Br366   1.931       .  S
C360        C361   1.447       .  A
C360       Br365   1.940       .  S
C361        C362   1.452       .  A
C362       Br363   1.948       .  S
C367        C368   1.458       .  A
C367        C372   1.422       .  A
C367       Br374   1.953   1_554  S
C368        C369   1.429       .  A
C369        C370   1.401       .  A
C369       Br376   1.937       .  S
C370        C371   1.401       .  A
C370       Br375   1.930       .  S
C371        C372   1.406       .  A
C372       Br373   1.938       .  S
C377        C378   1.403       .  A
C377        C382   1.410       .  A
C377       Br384   1.936       .  S
C378        C379   1.397       .  A
C379        C380   1.394       .  A
C379       Br386   1.940       .  S
C380        C381   1.447       .  A
C380       Br385   1.946       .  S
C381        C382   1.449       .  A
C382       Br383   1.938   1_556  S
C387        C388   1.453       .  A
C387        C392   1.402       .  A
C387       Br394   1.947       .  S
C388        C389   1.450       .  A
C389        C390   1.414       .  A
C389       Br396   1.938       .  S
C390        C391   1.402       .  A
C390       Br395   1.937       .  S
C391        C392   1.398       .  A
C392       Br393   1.940       .  S
C397        C398   1.393       .  A
C397        C402   1.391       .  A
C397       Br404   1.915       .  S
C398        C399   1.405       .  A
C399        C400   1.431       .  A
C399       Br406   1.931       .  S
C400        C401   1.473       .  A
C400       Br405   1.950       .  S
C401        C402   1.419       .  A
C402       Br403   1.933       .  S
C407        C408   1.461       .  A
C407        C412   1.418       .  A
C407       Br414   1.944       .  S
C408        C409   1.441       .  A
C409        C410   1.403       .  A
C409       Br416   1.932       .  S
C410        C411   1.396       .  A
C410       Br415   1.935       .  S
C411        C412   1.403       .  A
C412       Br413   1.948       .  S
C417        C418   1.451       .  A
C417        C422   1.400       .  A
C417       Br424   1.947       .  S
C418        C419   1.448       .  A
C419        C420   1.419       .  A
C419       Br426   1.936       .  S
C420        C421   1.408       .  A
C420       Br425   1.936       .  S
C421        C422   1.398       .  A
C422       Br423   1.939       .  S
C427        C428   1.402       .  A
C427        C432   1.406       .  A
C427       Br434   1.926       .  S
C428        C429   1.407       .  A
C429        C430   1.422       .  A
C429       Br436   1.936       .  S
C430        C431   1.452       .  A
C430       Br435   1.934       .  S
C431        C432   1.446       .  A
C432       Br433   1.945       .  S
C437        C438   1.397       .  A
C437        C442   1.410       .  A
C437       Br444   1.927       .  S
C438        C439   1.398       .  A
C439        C440   1.422       .  A
C439       Br446   1.950       .  S
C440        C441   1.467       .  A
C440       Br445   1.931   1_655  S
C441        C442   1.437       .  A
C442       Br443   1.932       .  S
C447        C448   1.459       .  A
C447        C452   1.422       .  A
C447       Br454   1.952       .  S
C448        C449   1.430       .  A
C449        C450   1.415       .  A
C449       Br456   1.935       .  S
C450        C451   1.422       .  A
C450       Br455   1.943       .  S
C451        C452   1.415       .  A
C452       Br453   1.942       .  S
C457        C458   1.452       .  A
C457        C462   1.399       .  A
C457       Br464   1.947       .  S
C458        C459   1.449       .  A
C459        C460   1.411       .  A
C459       Br466   1.941       .  S
C460        C461   1.406       .  A
C460       Br465   1.938       .  S
C461        C462   1.397       .  A
C462       Br463   1.940       .  S
C467        C468   1.456       .  A
C467        C472   1.419       .  A
C467       Br474   1.935   1_545  S
C468        C469   1.441       .  A
C469        C470   1.386       .  A
C469       Br476   1.940       .  S
C470        C471   1.395       .  A
C470       Br475   1.923       .  S
C471        C472   1.403       .  A
C472       Br473   1.932       .  S
C477        C478   1.451       .  A
C477        C482   1.419       .  A
C477       Br484   1.950       .  S
C478        C479   1.453       .  A
C479        C480   1.406       .  A
C479       Br486   1.953   1_655  S
C480        C481   1.394       .  A
C480       Br485   1.938       .  S
C481        C482   1.403       .  A
C482       Br483   1.935       .  S
C487        C488   1.448       .  A
C487        C492   1.411       .  A
C487       Br494   1.933       .  S
C488        C489   1.442       .  A
C489        C490   1.403       .  A
C489       Br496   1.937       .  S
C490        C491   1.404       .  A
C490       Br495   1.939       .  S
C491        C492   1.404       .  A
C492       Br493   1.938       .  S
C497        C498   1.451       .  A
C497        C502   1.409       .  A
C497       Br504   1.935       .  S
C498        C499   1.451       .  A
C499        C500   1.405       .  A
C499       Br506   1.945       .  S
C500        C501   1.401       .  A
C500       Br505   1.940       .  S
C501        C502   1.400       .  A
C502       Br503   1.939       .  S
C507        C508   1.403       .  A
C507        C512   1.410       .  A
C507       Br514   1.938       .  S
C508        C509   1.399       .  A
C509        C510   1.402       .  A
C509       Br516   1.939       .  S
C510        C511   1.452       .  A
C510       Br515   1.948       .  S
C511        C512   1.449       .  A
C512       Br513   1.939       .  S
C517        C518   1.462       .  A
C517        C522   1.403       .  A
C517       Br524   1.953       .  S
C518        C519   1.451       .  A
C519        C520   1.434       .  A
C519       Br526   1.916       .  S
C520        C521   1.415       .  A
C520       Br525   1.943       .  S
C521        C522   1.398       .  A
C522       Br523   1.937       .  S
C527        C528   1.451       .  A
C527        C532   1.416       .  A
C527       Br534   1.914       .  S
C528        C529   1.454       .  A
C529        C530   1.414       .  A
C529       Br536   1.935   1_455  S
C530        C531   1.394       .  A
C530       Br535   1.938       .  S
C531        C532   1.395       .  A
C532       Br533   1.950       .  S
C537        C538   1.403       .  A
C537        C542   1.419       .  A
C537       Br544   1.943       .  S
C538        C539   1.405       .  A
C539        C540   1.424       .  A
C539       Br546   1.946       .  S
C540        C541   1.460       .  A
C540       Br545   1.934       .  S
C541        C542   1.453       .  A
C542       Br543   1.922       .  S
C547        C548   1.396       .  A
C547        C552   1.419       .  A
C547       Br554   1.944       .  S
C548        C549   1.396       .  A
C549        C550   1.416       .  A
C549       Br556   1.939       .  S
C550        C551   1.460       .  A
C550       Br555   1.952   1_545  S
C551        C552   1.454       .  A
C552       Br553   1.922       .  S
C557        C558   1.402       .  A
C557        C562   1.405       .  A
C557       Br564   1.937       .  S
C558        C559   1.403       .  A
C559        C560   1.416       .  A
C559       Br566   1.938       .  S
C560        C561   1.454       .  A
C560       Br565   1.935       .  S
C561        C562   1.450       .  A
C562       Br563   1.950       .  S
C567        C568   1.404       .  A
C567        C572   1.415       .  A
C567       Br574   1.940       .  S
C568        C569   1.403       .  A
C569        C570   1.411       .  A
C569       Br576   1.937       .  S
C570        C571   1.455       .  A
C570       Br575   1.949       .  S
C571        C572   1.452       .  A
C572       Br573   1.933       .  S
C577        C578   1.446       .  A
C577        C582   1.404       .  A
C577       Br584   1.942       .  S
C578        C579   1.450       .  A
C579        C580   1.414       .  A
C579       Br586   1.936       .  S
C580        C581   1.403       .  A
C580       Br585   1.925       .  S
C581        C582   1.399       .  A
C582       Br583   1.923       .  S
C587        C588   1.450       .  A
C587        C592   1.419       .  A
C587       Br594   1.937       .  S
C588        C589   1.444       .  A
C589        C590   1.393       .  A
C589       Br596   1.945       .  S
C590        C591   1.395       .  A
C590       Br595   1.924       .  S
C591        C592   1.406       .  A
C592       Br593   1.934       .  S
C597        C598   1.456       .  A
C597        C602   1.415       .  A
C597       Br604   1.931       .  S
C598        C599   1.451       .  A
C599        C600   1.414       .  A
C599       Br606   1.919       .  S
C600        C601   1.393       .  A
C600       Br605   1.943       .  S
C601        C602   1.393       .  A
C602       Br603   1.944       .  S
C607        C608   1.416       .  A
C607        C612   1.405       .  A
C607       Br614   1.923       .  S
C608        C609   1.407       .  A
C609        C610   1.404       .  A
C609       Br616   1.936       .  S
C610        C611   1.458       .  A
C610       Br615   1.943       .  S
C611        C612   1.432       .  A
C612       Br613   1.924       .  S
C617        C618   1.448       .  A
C617        C622   1.404       .  A
C617       Br624   1.943       .  S
C618        C619   1.457       .  A
C619        C620   1.420       .  A
C619       Br626   1.942       .  S
C620        C621   1.407       .  A
C620       Br625   1.945       .  S
C621        C622   1.404       .  A
C622       Br623   1.937       .  S
C627        C628   1.463   1_655  A
C627        C632   1.423       .  A
C627       Br634   1.939       .  S
C628        C629   1.452       .  A
C629        C630   1.413       .  A
C629       Br636   1.931       .  S
C630        C631   1.397       .  A
C630       Br635   1.944       .  S
C631        C632   1.400   1_455  A
C632       Br633   1.944       .  S
C637        C638   1.392   1_655  A
C637        C642   1.412       .  A
C637       Br644   1.940       .  S
C638        C639   1.397       .  A
C639        C640   1.420       .  A
C639       Br646   1.932       .  S
C640        C641   1.457       .  A
C640       Br645   1.943       .  S
C641        C642   1.460   1_455  A
C642       Br643   1.940       .  S
C647        C648   1.400       .  A
C647        C652   1.389       .  A
C647       Br654   1.942       .  S
C648        C649   1.419       .  A
C649        C650   1.433       .  A
C649       Br656   1.933       .  S
C650        C651   1.447       .  A
C650       Br655   1.941       .  S
C651        C652   1.445       .  A
C652       Br653   1.949       .  S
C657        C658   1.401       .  A
C657        C662   1.411       .  A
C657       Br664   1.927       .  S
C658        C659   1.402   1_655  A
C659        C660   1.421       .  A
C659       Br666   1.939       .  S
C660        C661   1.456       .  A
C660       Br665   1.949       .  S
C661        C662   1.431   1_455  A
C662       Br663   1.939       .  S
C667        C668   1.465       .  A
C667        C672   1.408       .  A
C667       Br674   1.962       .  S
C668        C669   1.422       .  A
C669        C670   1.412   1_455  A
C669       Br676   1.935       .  S
C670        C671   1.423       .  A
C670       Br675   1.932       .  S
C671        C672   1.406   1_655  A
C672       Br673   1.947   1_455  S
C677        C678   1.458       .  A
C677        C682   1.418       .  A
C677       Br684   1.935       .  S
C678        C679   1.448       .  A
C679        C680   1.407       .  A
C679       Br686   1.922       .  S
C680        C681   1.394       .  A
C680       Br685   1.925       .  S
C681        C682   1.399       .  A
C682       Br683   1.934       .  S
C687        C688   1.458       .  A
C687        C692   1.408       .  A
C687       Br694   1.953       .  S
C688        C689   1.451       .  A
C689        C690   1.412       .  A
C689       Br696   1.924       .  S
C690        C691   1.394       .  A
C690       Br695   1.944       .  S
C691        C692   1.393       .  A
C692       Br693   1.940       .  S
C697        C698   1.461       .  A
C697        C702   1.419       .  A
C697       Br704   1.949       .  S
C698        C699   1.458       .  A
C699        C700   1.411       .  A
C699       Br706   1.934       .  S
C700        C701   1.391       .  A
C700       Br705   1.945       .  S
C701        C702   1.399       .  A
C702       Br703   1.946       .  S
C707        C708   1.443       .  A
C707        C712   1.405       .  A
C707       Br714   1.941       .  S
C708        C709   1.453       .  A
C709        C710   1.404       .  A
C709       Br716   1.954       .  S
C710        C711   1.395       .  A
C710       Br715   1.926       .  S
C711        C712   1.399       .  A
C712       Br713   1.938       .  S
C717        C718   1.402       .  A
C717        C722   1.394       .  A
C717       Br724   1.940       .  S
C718        C719   1.415       .  A
C719        C720   1.420       .  A
C719       Br726   1.949       .  S
C720        C721   1.451       .  A
C720       Br725   1.931       .  S
C721        C722   1.445       .  A
C722       Br723   1.948       .  S
C727        C728   1.453       .  A
C727        C732   1.410       .  A
C727       Br734   1.944       .  S
C728        C729   1.449   1_565  A
C729        C730   1.407       .  A
C729       Br736   1.941       .  S
C730        C731   1.406   1_545  A
C730       Br735   1.940       .  S
C731        C732   1.403       .  A
C732       Br733   1.936       .  S
C737        C738   1.447       .  A
C737        C742   1.425       .  A
C737       Br744   1.928       .  S
C738        C739   1.451       .  A
C739        C740   1.403   1_545  A
C739       Br746   1.952       .  S
C740        C741   1.410   1_565  A
C740       Br745   1.946       .  S
C741        C742   1.420       .  A
C742       Br743   1.949       .  S
C747        C748   1.395       .  A
C747        C752   1.415       .  A
C747       Br754   1.946       .  S
C748        C749   1.403       .  A
C749        C750   1.422       .  A
C749       Br756   1.948       .  S
C750        C751   1.460       .  A
C750       Br755   1.941       .  S
C751        C752   1.455       .  A
C752       Br753   1.924       .  S
C757        C758   1.451       .  A
C757        C762   1.415       .  A
C757       Br764   1.923       .  S
C758        C759   1.460       .  A
C759        C760   1.410       .  A
C759       Br766   1.951       .  S
C760        C761   1.391       .  A
C760       Br765   1.939       .  S
C761        C762   1.397       .  A
C762       Br763   1.942       .  S
C767        C768   1.460       .  A
C767        C772   1.423       .  A
C767       Br774   1.946       .  S
C768        C769   1.457       .  A
C769        C770   1.416       .  A
C769       Br776   1.930       .  S
C770        C771   1.395       .  A
C770       Br775   1.945       .  S
C771        C772   1.404       .  A
C772       Br773   1.946       .  S
C777        C778   1.407       .  A
C777        C782   1.408       .  A
C777       Br784   1.932       .  S
C778        C779   1.409       .  A
C779        C780   1.412       .  A
C779       Br786   1.931       .  S
C780        C781   1.448       .  A
C780       Br785   1.938       .  S
C781        C782   1.448       .  A
C782       Br783   1.941       .  S
C787        C788   1.405       .  A
C787        C792   1.409       .  A
C787       Br794   1.939       .  S
C788        C789   1.408   1_565  A
C789        C790   1.411       .  A
C789       Br796   1.937       .  S
C790        C791   1.449   1_545  A
C790       Br795   1.944       .  S
C791        C792   1.449       .  A
C792       Br793   1.942       .  S
C797        C798   1.402       .  A
C797        C802   1.406       .  A
C797       Br804   1.931       .  S
C798        C799   1.405   1_545  A
C799        C800   1.410       .  A
C799       Br806   1.937       .  S
C800        C801   1.452   1_565  A
C800       Br805   1.950       .  S
C801        C802   1.449       .  A
C802       Br803   1.945       .  S
C807        C808   1.409       .  A
C807        C812   1.398       .  A
C807       Br814   1.937       .  S
C808        C809   1.420       .  A
C809        C810   1.427       .  A
C809       Br816   1.943       .  S
C810        C811   1.449       .  A
C810       Br815   1.928       .  S
C811        C812   1.445       .  A
C812       Br813   1.950       .  S
C817        C818   1.460       .  A
C817        C822   1.425       .  A
C817       Br824   1.934       .  S
C818        C819   1.446       .  A
C819        C820   1.415       .  A
C819       Br826   1.926       .  S
C820        C821   1.406       .  A
C820       Br825   1.932       .  S
C821        C822   1.405       .  A
C822       Br823   1.946       .  S
C827        C828   1.456       .  A
C827        C832   1.412       .  A
C827       Br834   1.950       .  S
C828        C829   1.451       .  A
C829        C830   1.417       .  A
C829       Br836   1.930       .  S
C830        C831   1.398       .  A
C830       Br835   1.940       .  S
C831        C832   1.395       .  A
C832       Br833   1.940       .  S
C837        C838   1.427       .  A
C837        C842   1.426       .  A
C837       Br844   1.941       .  S
C838        C839   1.405       .  A
C839        C840   1.410       .  A
C839       Br846   1.947       .  S
C840        C841   1.456       .  A
C840       Br845   1.950       .  S
C841        C842   1.444       .  A
C842       Br843   1.935       .  S
C847        C848   1.457       .  A
C847        C852   1.411       .  A
C847       Br854   1.924       .  S
C848        C849   1.450       .  A
C849        C850   1.407       .  A
C849       Br856   1.945       .  S
C850        C851   1.401       .  A
C850       Br855   1.926       .  S
C851        C852   1.396       .  A
C852       Br853   1.940       .  S
C857        C858   1.399       .  A
C857        C862   1.418       .  A
C857       Br864   1.937       .  S
C858        C859   1.394       .  A
C859        C860   1.412       .  A
C859       Br866   1.933       .  S
C860        C861   1.454       .  A
C860       Br865   1.935       .  S
C861        C862   1.457       .  A
C862       Br863   1.945       .  S
C867        C868   1.401   1_545  A
C867        C872   1.422       .  A
C867       Br874   1.943       .  S
C868        C869   1.393       .  A
C869        C870   1.412       .  A
C869       Br876   1.946       .  S
C870        C871   1.458       .  A
C870       Br875   1.931       .  S
C871        C872   1.460   1_565  A
C872       Br873   1.943       .  S
C877        C878   1.407   1_565  A
C877        C882   1.404       .  A
C877       Br884   1.934       .  S
C878        C879   1.419       .  A
C879        C880   1.412       .  A
C879       Br886   1.943       .  S
C880        C881   1.448       .  A
C880       Br885   1.944       .  S
C881        C882   1.447   1_545  A
C882       Br883   1.937       .  S
C887        C888   1.397       .  A
C887        C892   1.419       .  A
C887       Br894   1.943       .  S
C888        C889   1.403       .  A
C889        C890   1.418       .  A
C889       Br896   1.939       .  S
C890        C891   1.458       .  A
C890       Br895   1.945       .  S
C891        C892   1.461       .  A
C892       Br893   1.936       .  S
C897        C898   1.445       .  A
C897        C902   1.398       .  A
C897       Br904   1.947       .  S
C898        C899   1.454       .  A
C899        C900   1.417       .  A
C899       Br906   1.935       .  S
C900        C901   1.404       .  A
C900       Br905   1.935       .  S
C901        C902   1.399       .  A
C902       Br903   1.923       .  S
C907        C908   1.454       .  A
C907        C912   1.417       .  A
C907       Br914   1.933       .  S
C908        C909   1.445       .  A
C909        C910   1.400       .  A
C909       Br916   1.946       .  S
C910        C911   1.402       .  A
C910       Br915   1.927       .  S
C911        C912   1.403       .  A
C912       Br913   1.936       .  S
C917        C918   1.399       .  A
C917        C922   1.394       .  A
C917       Br924   1.934       .  S
C918        C919   1.411       .  A
C919        C920   1.417       .  A
C919       Br926   1.941       .  S
C920        C921   1.450       .  A
C920       Br925   1.928       .  S
C921        C922   1.444       .  A
C922       Br923   1.937       .  S
C927        C928   1.402   1_554  A
C927        C932   1.404       .  A
C927       Br934   1.943       .  S
C928        C929   1.406       .  A
C929        C930   1.410       .  A
C929       Br936   1.944       .  S
C930        C931   1.443       .  A
C930       Br935   1.929       .  S
C931        C932   1.435   1_556  A
C932       Br933   1.927       .  S
C937        C938   1.441       .  A
C937        C942   1.421       .  A
C937       Br944   1.946       .  S
C938        C939   1.434       .  A
C939        C940   1.389   1_554  A
C939       Br946   1.938       .  S
C940        C941   1.413       .  A
C940       Br945   1.944       .  S
C941        C942   1.423   1_556  A
C942       Br943   1.936       .  S
C947        C948   1.461       .  A
C947        C952   1.418       .  A
C947       Br954   1.945       .  S
C948        C949   1.456       .  A
C949        C950   1.412       .  A
C949       Br956   1.938       .  S
C950        C951   1.395       .  A
C950       Br955   1.946       .  S
C951        C952   1.396       .  A
C952       Br953   1.941       .  S
C957        C958   1.396       .  A
C957        C962   1.413       .  A
C957       Br964   1.946       .  S
C958        C959   1.399       .  A
C959        C960   1.416       .  A
C959       Br966   1.935       .  S
C960        C961   1.458       .  A
C960       Br965   1.948       .  S
C961        C962   1.457       .  A
C962       Br963   1.939       .  S
C967        C968   1.411       .  A
C967        C972   1.426       .  A
C967       Br974   1.946       .  S
C968        C969   1.400   1_565  A
C969        C970   1.404       .  A
C969       Br976   1.932       .  S
C970        C971   1.449   1_545  A
C970       Br975   1.937       .  S
C971        C972   1.457       .  A
C972       Br973   1.938       .  S
C977        C978   1.404   1_565  A
C977        C982   1.406       .  A
C977       Br984   1.933       .  S
C978        C979   1.404       .  A
C979        C980   1.415       .  A
C979       Br986   1.942       .  S
C980        C981   1.455       .  A
C980       Br985   1.942       .  S
C981        C982   1.447   1_545  A
C982       Br983   1.942       .  S
C987        C988   1.401       .  A
C987        C992   1.410       .  A
C987       Br994   1.926       .  S
C988        C989   1.402       .  A
C989        C990   1.406       .  A
C989       Br996   1.932       .  S
C990        C991   1.449       .  A
C990       Br995   1.946       .  S
C991        C992   1.450       .  A
C992       Br993   1.934       .  S
C997        C998   1.448       .  A
C997       C1002   1.398       .  A
C997      Br1004   1.946       .  S
C998        C999   1.451       .  A
C999       C1000   1.410       .  A
C999      Br1006   1.935       .  S
C1000      C1001   1.403       .  A
C1000     Br1005   1.939       .  S
C1001      C1002   1.397       .  A
C1002     Br1003   1.937       .  S
C1007      C1008   1.463       .  A
C1007      C1012   1.419       .  A
C1007     Br1014   1.941       .  S
C1008      C1009   1.452       .  A
C1009      C1010   1.406       .  A
C1009     Br1016   1.939       .  S
C1010      C1011   1.390       .  A
C1010     Br1015   1.929       .  S
C1011      C1012   1.396       .  A
C1012     Br1013   1.951       .  S
C1017      C1018   1.390       .  A
C1017      C1022   1.404       .  A
C1017     Br1024   1.936       .  S
C1018      C1019   1.399       .  A
C1019      C1020   1.419       .  A
C1019     Br1026   1.934       .  S
C1020      C1021   1.459       .  A
C1020     Br1025   1.947       .  S
C1021      C1022   1.449       .  A
C1022     Br1023   1.927       .  S
C1027      C1028   1.454       .  A
C1027      C1032   1.411       .  A
C1027     Br1034   1.942       .  S
C1028      C1029   1.454       .  A
C1029      C1030   1.414       .  A
C1029     Br1036   1.950       .  S
C1030      C1031   1.405       .  A
C1030     Br1035   1.936       .  S
C1031      C1032   1.400       .  A
C1032     Br1033   1.941       .  S
C1037      C1038   1.409       .  A
C1037      C1042   1.401       .  A
C1037     Br1044   1.936       .  S
C1038      C1039   1.413   1_556  A
C1039      C1040   1.409       .  A
C1039     Br1046   1.935       .  S
C1040      C1041   1.444       .  A
C1040     Br1045   1.938       .  S
C1041      C1042   1.447   1_554  A
C1042     Br1043   1.943       .  S
C1047      C1048   1.447       .  A
C1047      C1052   1.421       .  A
C1047     Br1054   1.929       .  S
C1048      C1049   1.450       .  A
C1049      C1050   1.401   1_556  A
C1049     Br1056   1.953       .  S
C1050      C1051   1.411   1_554  A
C1050     Br1055   1.946       .  S
C1051      C1052   1.417       .  A
C1052     Br1053   1.945       .  S
C1057      C1058   1.456       .  A
C1057      C1062   1.422       .  A
C1057     Br1064   1.921       .  S
C1058      C1059   1.465       .  A
C1059      C1060   1.421       .  A
C1059     Br1066   1.945       .  S
C1060      C1061   1.398       .  A
C1060     Br1065   1.939       .  S
C1061      C1062   1.399       .  A
C1062     Br1063   1.941       .  S
C1067      C1068   1.448       .  A
C1067      C1072   1.417       .  A
C1067     Br1074   1.944       .  S
C1068      C1069   1.461       .  A
C1069      C1070   1.412       .  A
C1069     Br1076   1.940       .  S
C1070      C1071   1.390       .  A
C1070     Br1075   1.940       .  S
C1071      C1072   1.404       .  A
C1072     Br1073   1.940       .  S
C1077      C1078   1.455       .  A
C1077      C1082   1.410       .  A
C1077     Br1084   1.948       .  S
C1078      C1079   1.456       .  A
C1079      C1080   1.416       .  A
C1079     Br1086   1.924       .  S
C1080      C1081   1.395       .  A
C1080     Br1085   1.945       .  S
C1081      C1082   1.394       .  A
C1082     Br1083   1.937       .  S
C1087      C1088   1.464       .  A
C1087      C1092   1.427       .  A
C1087     Br1094   1.935       .  S
C1088      C1089   1.446       .  A
C1089      C1090   1.408       .  A
C1089     Br1096   1.926       .  S
C1090      C1091   1.397       .  A
C1090     Br1095   1.925       .  S
C1091      C1092   1.403       .  A
C1092     Br1093   1.947       .  S
C1097      C1098   1.440       .  A
C1097      C1102   1.399       .  A
C1097     Br1104   1.959       .  S
C1098      C1099   1.431       .  A
C1099      C1100   1.419       .  A
C1099     Br1106   1.930       .  S
C1100      C1101   1.427       .  A
C1100     Br1105   1.945       .  S
C1101      C1102   1.416       .  A
C1102     Br1103   1.944       .  S
C1107      C1108   1.406   1_455  A
C1107      C1112   1.411       .  A
C1107     Br1114   1.941       .  S
C1108      C1109   1.399       .  A
C1109      C1110   1.406       .  A
C1109     Br1116   1.941       .  S
C1110      C1111   1.460   1_655  A
C1110     Br1115   1.962       .  S
C1111      C1112   1.442       .  A
C1112     Br1113   1.937       .  S
C1117      C1118   1.458       .  A
C1117      C1122   1.409       .  A
C1117     Br1124   1.940       .  S
C1118      C1119   1.460   1_455  A
C1119      C1120   1.417       .  A
C1119     Br1126   1.941       .  S
C1120      C1121   1.399       .  A
C1120     Br1125   1.953       .  S
C1121      C1122   1.392   1_655  A
C1122     Br1123   1.946       .  S
C1127      C1128   1.397       .  A
C1127      C1132   1.417       .  A
C1127     Br1134   1.944       .  S
C1128      C1129   1.393       .  A
C1129      C1130   1.408       .  A
C1129     Br1136   1.949       .  S
C1130      C1131   1.456       .  A
C1130     Br1135   1.933       .  S
C1131      C1132   1.458       .  A
C1132     Br1133   1.943       .  S
C1137      C1138   1.449       .  A
C1137      C1142   1.424       .  A
C1137     Br1144   1.919       .  S
C1138      C1139   1.453   1_455  A
C1139      C1140   1.405       .  A
C1139     Br1146   1.938       .  S
C1140      C1141   1.393       .  A
C1140     Br1145   1.931       .  S
C1141      C1142   1.403   1_655  A
C1142     Br1143   1.945       .  S
C1147      C1148   1.405       .  A
C1147      C1152   1.424       .  A
C1147     Br1154   1.936       .  S
C1148      C1149   1.393   1_655  A
C1149      C1150   1.403       .  A
C1149     Br1156   1.939       .  S
C1150      C1151   1.444       .  A
C1150     Br1155   1.924       .  S
C1151      C1152   1.449   1_455  A
C1152     Br1153   1.927       .  S
C1157      C1158   1.392       .  A
C1157      C1162   1.393       .  A
C1157     Br1164   1.925       .  S
C1158      C1159   1.402       .  A
C1159      C1160   1.417       .  A
C1159     Br1166   1.934       .  S
C1160      C1161   1.457       .  A
C1160     Br1165   1.946       .  S
C1161      C1162   1.440       .  A
C1162     Br1163   1.945       .  S
C1167      C1168   1.448       .  A
C1167      C1172   1.410       .  A
C1167     Br1174   1.934       .  S
C1168      C1169   1.448       .  A
C1169      C1170   1.399       .  A
C1169     Br1176   1.945       .  S
C1170      C1171   1.399       .  A
C1170     Br1175   1.939       .  S
C1171      C1172   1.404       .  A
C1172     Br1173   1.938       .  S
C1177      C1178   1.444       .  A
C1177      C1182   1.393       .  A
C1177     Br1184   1.935       .  S
C1178      C1179   1.455       .  A
C1179      C1180   1.420       .  A
C1179     Br1186   1.926       .  S
C1180      C1181   1.406       .  A
C1180     Br1185   1.950       .  S
C1181      C1182   1.398       .  A
C1182     Br1183   1.939       .  S
C1187      C1188   1.421       .  A
C1187      C1192   1.419       .  A
C1187     Br1194   1.947       .  S
C1188      C1189   1.398       .  A
C1189      C1190   1.387       .  A
C1189     Br1196   1.939       .  S
C1190      C1191   1.446       .  A
C1190     Br1195   1.948       .  S
C1191      C1192   1.443       .  A
C1192     Br1193   1.931       .  S
C1197      C1198   1.392       .  A
C1197      C1202   1.409       .  A
C1197     Br1204   1.936       .  S
C1198      C1199   1.403       .  A
C1199      C1200   1.416       .  A
C1199     Br1206   1.951       .  S
C1200      C1201   1.458       .  A
C1200     Br1205   1.950       .  S
C1201      C1202   1.459       .  A
C1202     Br1203   1.951       .  S
C1207      C1208   1.454       .  A
C1207      C1212   1.415       .  A
C1207     Br1214   1.929       .  S
C1208      C1209   1.460   1_554  A
C1209      C1210   1.422       .  A
C1209     Br1216   1.943       .  S
C1210      C1211   1.399       .  A
C1210     Br1215   1.940       .  S
C1211      C1212   1.396   1_556  A
C1212     Br1213   1.939       .  S
C1217      C1218   1.397   1_556  A
C1217      C1222   1.407       .  A
C1217     Br1224   1.937       .  S
C1218      C1219   1.398       .  A
C1219      C1220   1.423       .  A
C1219     Br1226   1.938       .  S
C1220      C1221   1.459   1_554  A
C1220     Br1225   1.931       .  S
C1221      C1222   1.462       .  A
C1222     Br1223   1.952       .  S
C1227      C1228   1.395       .  A
C1227      C1232   1.416       .  A
C1227     Br1234   1.941       .  S
C1228      C1229   1.394       .  A
C1229      C1230   1.408       .  A
C1229     Br1236   1.940       .  S
C1230      C1231   1.457       .  A
C1230     Br1235   1.954       .  S
C1231      C1232   1.452       .  A
C1232     Br1233   1.923       .  S
C1237      C1238   1.451       .  A
C1237      C1242   1.410       .  A
C1237     Br1244   1.926       .  S
C1238      C1239   1.460       .  A
C1239      C1240   1.423       .  A
C1239     Br1246   1.936       .  S
C1240      C1241   1.404       .  A
C1240     Br1245   1.946       .  S
C1241      C1242   1.397       .  A
C1242     Br1243   1.934       .  S
C1247      C1248   1.443       .  A
C1247      C1252   1.396       .  A
C1247     Br1254   1.950       .  S
C1248      C1249   1.452       .  A
C1249      C1250   1.426       .  A
C1249     Br1256   1.929       .  S
C1250      C1251   1.416       .  A
C1250     Br1255   1.947       .  S
C1251      C1252   1.407       .  A
C1252     Br1253   1.940       .  S
C1257      C1258   1.449       .  A
C1257      C1262   1.403       .  A
C1257     Br1264   1.914       .  S
C1258      C1259   1.451       .  A
C1259      C1260   1.424       .  A
C1259     Br1266   1.935       .  S
C1260      C1261   1.412       .  A
C1260     Br1265   1.930       .  S
C1261      C1262   1.393       .  A
C1262     Br1263   1.941       .  S
C1267      C1268   1.407       .  A
C1267      C1272   1.405       .  A
C1267     Br1274   1.930       .  S
C1268      C1269   1.415   1_554  A
C1269      C1270   1.401       .  A
C1269     Br1276   1.943       .  S
C1270      C1271   1.445   1_556  A
C1270     Br1275   1.943       .  S
C1271      C1272   1.446       .  A
C1272     Br1273   1.942       .  S
C1277      C1278   1.385       .  A
C1277      C1282   1.404       .  A
C1277     Br1284   1.931       .  S
C1278      C1279   1.392   1_556  A
C1279      C1280   1.416       .  A
C1279     Br1286   1.928       .  S
C1280      C1281   1.463   1_554  A
C1280     Br1285   1.945       .  S
C1281      C1282   1.451       .  A
C1282     Br1283   1.923       .  S
C1287      C1288   1.391       .  A
C1287      C1292   1.414       .  A
C1287     Br1294   1.937       .  S
C1288      C1289   1.399       .  A
C1289      C1290   1.421       .  A
C1289     Br1296   1.946       .  S
C1290      C1291   1.462       .  A
C1290     Br1295   1.944       .  S
C1291      C1292   1.458       .  A
C1292     Br1293   1.933       .  S
