geometry optimzed in LAMMPS
_audit_creation_date              2020-11-30 
_audit_creation_method            'lammps2cif' 
_symmetry_space_group_name_H-M    'P1' 
_symmetry_Int_Tables_number       1 
_symmetry_cell_setting            triclinic 
loop_ 
_symmetry_equiv_pos_as_xyz 
  x,y,z 
_cell_length_a                    30.86444301593672 
_cell_length_b                    30.733474975740105 
_cell_length_c                    30.25471121973354 
_cell_angle_alpha                 90.52657112184107 
_cell_angle_beta                  89.86788524109465 
_cell_angle_gamma                 89.7014572145344 
loop_ 
_atom_site_label 
_atom_site_type_symbol 
_atom_site_fract_x 
_atom_site_fract_y 
_atom_site_fract_z 
_atom_site_charge 
O1          O  0.56875401  0.93842993  0.47045560    -0.80650
O2          O  0.44517488  0.94124012  0.52867609    -0.80670
O3          O  0.53275686  0.93594638  0.55851622    -0.80680
O4          O  0.47590814  0.94081159  0.43754405    -0.80620
O5          O  0.48393493  0.96344804  0.59956697    -0.80740
O6          O  0.52826434  0.96710262  0.40068623    -0.80660
O7          O  0.40666641  0.96938017  0.47925108    -0.80650
O8          O  0.60630015  0.96276098  0.52332409    -0.80680
C9          C  0.60293483  0.93642750  0.49103096     1.09040
C10         C  0.41068187  0.94112786  0.50924984     1.08930
C11         C  0.51359679  0.93513241  0.59402035     1.09070
C12         C  0.49819332  0.93940062  0.40393354     1.08940
O13         O  0.54639564  0.05681242  0.43653662    -0.80650
O14         O  0.47303055  0.05774247  0.56593743    -0.80720
O15         O  0.56570222  0.05396789  0.53786593    -0.80660
O16         O  0.45162186  0.05985609  0.46940013    -0.80640
O17         O  0.40836112  0.03639283  0.51682762    -0.80690
O18         O  0.60767503  0.03088047  0.48775799    -0.80660
O19         O  0.49036824  0.03484485  0.40098139    -0.80620
O20         O  0.52310829  0.02756688  0.60356859    -0.80690
Co21       Co  0.55800319  0.99804765  0.45350737     1.51530
Co22       Co  0.45722105  0.99966954  0.54799211     1.51690
Co23       Co  0.55211798  0.99492763  0.55035414     1.51570
Co24       Co  0.46096560  0.00042873  0.45170206     1.51470
O25         O  0.50728135  0.00006603  0.50052501    -1.42580
C26         C  0.52028084  0.06280648  0.40626941     1.08970
C27         C  0.49409233  0.05688558  0.60031958     1.09060
C28         C  0.60068634  0.05745850  0.51940509     1.09000
C29         C  0.41653972  0.06420312  0.48743557     1.08970
O30         O  0.95376591  0.55254601  0.53914830    -0.80650
O31         O  0.93891570  0.45038101  0.48036753    -0.80670
O32         O  0.94767972  0.53087570  0.44627742    -0.80680
O33         O  0.99665737  0.42137849  0.60195828    -0.80620
O34         O  0.96191071  0.48057369  0.40108199    -0.80740
O35         O  0.96860803  0.48759005  0.58660659    -0.80660
O36         O  0.96633893  0.40553952  0.52300595    -0.80650
O37         O  0.98214278  0.59307580  0.48993705    -0.80680
C38         C  0.95443461  0.58811239  0.52032307     1.09040
C39         C  0.93614786  0.41455129  0.49668631     1.08930
C40         C  0.94000452  0.51421438  0.41027041     1.09070
C41         C  0.96589185  0.44906035  0.60543239     1.08940
O42         O  0.07405000  0.51223336  0.54906558    -0.80650
O43         O  0.04900222  0.44727191  0.42055037    -0.80720
O44         O  0.06873371  0.55522326  0.46252502    -0.80660
O45         O  0.06011137  0.41950092  0.53680864    -0.80640
O46         O  0.02746355  0.39381599  0.47816738    -0.80690
O47         O  0.04921951  0.58255833  0.52542707    -0.80660
O48         O  0.04629122  0.48141114  0.59916115    -0.80620
O49         O  0.03468005  0.51296831  0.39800086    -0.80690
Co50       Co  0.01206932  0.53028205  0.54834917     1.51530
Co51       Co  0.99443048  0.44619706  0.44964122     1.51690
Co52       Co  0.00864756  0.54342433  0.45267867     1.51570
Co53       Co  0.00831900  0.45140920  0.55061286     1.51470
O54         O  0.01451600  0.49163918  0.49491444    -1.42580
C55         C  0.07669557  0.50445226  0.58786145     1.08970
C56         C  0.05595623  0.47748898  0.39468428     1.09060
C57         C  0.07358712  0.58358051  0.49118425     1.09000
C58         C  0.05721507  0.39097511  0.50759260     1.08970
O59         O  0.45324175  0.46182091  0.93122318    -0.80650
O60         O  0.56892964  0.52434159  0.93500460    -0.80670
O61         O  0.47982515  0.55788063  0.93073381    -0.80680
O62         O  0.54034483  0.42091610  0.94167665    -0.80620
O63         O  0.52862547  0.59411065  0.96284794    -0.80740
O64         O  0.48262263  0.39125796  0.96641438    -0.80660
O65         O  0.60312392  0.47083454  0.96316293    -0.80650
O66         O  0.41199068  0.51347301  0.94973491    -0.80680
C67         C  0.41956941  0.48142938  0.92396101     1.09040
C68         C  0.60131163  0.50098587  0.93451162     1.08930
C69         C  0.50027491  0.59194147  0.93284220     1.09070
C70         C  0.51300919  0.39181596  0.93811811     1.08940
O71         O  0.46382238  0.43552451  0.05430255    -0.80650
O72         O  0.53727174  0.55306076  0.05491942    -0.80720
O73         O  0.44043236  0.52872278  0.04838359    -0.80660
O74         O  0.56282806  0.46702520  0.05858882    -0.80640
O75         O  0.60548897  0.51119688  0.02849594    -0.80690
O76         O  0.40182938  0.48003596  0.01847349    -0.80660
O77         O  0.52011829  0.39790762  0.03762544    -0.80620
O78         O  0.48847616  0.59376867  0.02823081    -0.80690
Co79       Co  0.45644908  0.44771714  0.99279670     1.51530
Co80       Co  0.55453211  0.54036243  0.99499168     1.51690
Co81       Co  0.45932612  0.54386628  0.98968765     1.51570
Co82       Co  0.55213602  0.44384136  0.99983058     1.51470
O83         O  0.50573992  0.49354991  0.99373009    -1.42580
C84         C  0.48839683  0.40513933  0.06368511     1.08970
C85         C  0.51856437  0.58819816  0.05645870     1.09060
C86         C  0.40517430  0.51064361  0.04668546     1.09000
C87         C  0.59876661  0.48373627  0.05848748     1.08970
C88         C  0.64247132  0.86906975  0.78571637     0.02620
C89         C  0.62255201  0.87739454  0.74579040    -0.13530
C90         C  0.63023124  0.85195622  0.70873903     0.00120
C91         C  0.66137248  0.81847630  0.71029381    -0.12060
C92         C  0.68384594  0.81030734  0.75028607     0.02610
C93         C  0.67352144  0.83551842  0.78848227    -0.11480
H94         H  0.59894304  0.90372635  0.74388724     0.08210
H95         H  0.66826315  0.79931899  0.68084665     0.05740
H96         H  0.68938737  0.82920235  0.81968064     0.05580
C97         C  0.78567315  0.74526332  0.72106494     0.02620
C98         C  0.75200778  0.77634046  0.71996345    -0.13530
C99         C  0.71850196  0.77632335  0.75170055     0.00120
C100        C  0.71896358  0.74458515  0.78507836    -0.12060
C101        C  0.75231527  0.71318484  0.78674588     0.02610
C102        C  0.78520550  0.71362587  0.75427051    -0.11480
H103        H  0.75213619  0.80098660  0.69457356     0.08210
H104        H  0.69374287  0.74471129  0.81006631     0.05740
H105        H  0.81117754  0.68978949  0.75546953     0.05580
C106        C  0.86856616  0.71214257  0.63241096     0.02620
C107        C  0.83604598  0.70904782  0.66514000    -0.13530
C108        C  0.82210453  0.74699008  0.68855568     0.00120
C109        C  0.84349480  0.78694646  0.68092226    -0.12060
C110        C  0.87703728  0.78880391  0.64968354     0.02610
C111        C  0.88672205  0.75254024  0.62427961    -0.11480
H112        H  0.82135652  0.67788082  0.67186756     0.08210
H113        H  0.83425354  0.81609945  0.69910455     0.05740
H114        H  0.91005102  0.75600739  0.59759385     0.05580
C115        C  0.79944652  0.64243542  0.87647683     0.02620
C116        C  0.76496947  0.61541279  0.88549271    -0.13530
C117        C  0.72412123  0.62251434  0.86819771     0.00120
C118        C  0.71886814  0.65523024  0.83595402    -0.12060
C119        C  0.75489337  0.68122259  0.82348338     0.02610
C120        C  0.79489694  0.67545983  0.84543724    -0.11480
H121        H  0.77017436  0.58816676  0.90749260     0.08210
H122        H  0.68769395  0.65983830  0.82028364     0.05740
H123        H  0.82250663  0.69559372  0.83754186     0.05580
C124        C  0.27767529  0.21326953  0.74544460     0.02620
C125        C  0.27792814  0.24815209  0.77599418    -0.13530
C126        C  0.24568585  0.28081863  0.77566662     0.00120
C127        C  0.21236070  0.27848881  0.74374518    -0.12060
C128        C  0.21131705  0.24412591  0.71239519     0.02610
C129        C  0.24426022  0.21175494  0.71357296    -0.11480
H130        H  0.30337883  0.24977078  0.80058085     0.08210
H131        H  0.18716499  0.30317656  0.74347727     0.05740
H132        H  0.24336145  0.18489923  0.69013289     0.05580
C133        C  0.28897686  0.37363896  0.84745983     0.02620
C134        C  0.28536745  0.34239558  0.81330357    -0.13530
C135        C  0.24750791  0.31671251  0.80946299     0.00120
C136        C  0.21279600  0.32438467  0.83945704    -0.12060
C137        C  0.21799507  0.35418778  0.87488948     0.02610
C138        C  0.25666524  0.37677924  0.87913141    -0.11480
H139        H  0.31175584  0.33805053  0.78997402     0.08210
H140        H  0.18254079  0.30708929  0.83563605     0.05740
H141        H  0.26034089  0.39992076  0.90625416     0.05580
C142        C  0.35596597  0.12933861  0.79369829     0.02620
C143        C  0.38262383  0.12155737  0.75781867    -0.13530
C144        C  0.37286269  0.13677575  0.71612505     0.00120
C145        C  0.33778415  0.16616822  0.71094074    -0.12060
C146        C  0.31209972  0.17846787  0.74831738     0.02610
C147        C  0.32079488  0.15838259  0.78961957    -0.11480
H148        H  0.41060882  0.10032482  0.76193802     0.08210
H149        H  0.33091929  0.17955971  0.67871168     0.05740
H150        H  0.30085516  0.16576659  0.81826010     0.05580
C151        C  0.11489262  0.19724127  0.65066860     0.02620
C152        C  0.11961909  0.21876550  0.61073028    -0.13530
C153        C  0.14018709  0.25913974  0.60860787     0.00120
C154        C  0.16897028  0.26947840  0.64416871    -0.12060
C155        C  0.17481791  0.23989863  0.67983753     0.02610
C156        C  0.14505261  0.20539444  0.68433706    -0.11480
H157        H  0.10238672  0.20585331  0.58243390     0.08210
H158        H  0.18669124  0.29960969  0.64484170     0.05740
H159        H  0.14524230  0.18550942  0.71372158     0.05580
O160        O  0.55932014  0.96494343  0.93554766    -0.80650
O161        O  0.57369702  0.02872063  0.05405518    -0.80670
O162        O  0.56041194  0.06378700  0.96266976    -0.80680
O163        O  0.56588509  0.93028912  0.02610253    -0.80620
O164        O  0.54178306  0.10086655  0.01943241    -0.80740
O165        O  0.53145654  0.89743713  0.97468146    -0.80660
O166        O  0.55166762  0.97827776  0.09539310    -0.80650
O167        O  0.53237903  0.01716601  0.89917228    -0.80680
C168        C  0.55998828  0.98672135  0.90189778     1.09040
C169        C  0.57866620  0.00843208  0.08839206     1.08930
C170        C  0.56522287  0.09688110  0.98512641     1.09070
C171        C  0.56189825  0.89729438  0.00294301     1.08940
O172        O  0.44206178  0.94583693  0.97499930    -0.80650
O173        O  0.45534746  0.06651300  0.04699318    -0.80720
O174        O  0.44220174  0.02835402  0.94476852    -0.80660
O175        O  0.45411228  0.97260638  0.06473967    -0.80640
O176        O  0.48707279  0.01605764  0.10670762    -0.80690
O177        O  0.46622099  0.98088800  0.90034278    -0.80660
O178        O  0.47059103  0.90285990  0.02034358    -0.80620
O179        O  0.46893627  0.09665263  0.98466621    -0.80690
Co180      Co  0.50046917  0.95378669  0.95310583     1.51530
Co181      Co  0.51432032  0.04853071  0.05199198     1.51690
Co182      Co  0.50152294  0.04717051  0.95267316     1.51570
Co183      Co  0.51024126  0.95081146  0.04762550     1.51470
O184        O  0.50803325  0.00102816  0.00171502    -1.42580
C185        C  0.44127625  0.90998650  0.99212425     1.08970
C186        C  0.44456555  0.09276146  0.01820513     1.09060
C187        C  0.43922939  0.01121357  0.90813264     1.09000
C188        C  0.45746268  0.98784874  0.10180155     1.08970
C189        C  0.28889482  0.74714073  0.78368138     0.02620
C190        C  0.29019153  0.77813940  0.74938407    -0.13530
C191        C  0.25882827  0.77842082  0.71548648     0.00120
C192        C  0.22575795  0.74725501  0.71663063    -0.12060
C193        C  0.22396892  0.71551997  0.74999891     0.02610
C194        C  0.25566028  0.71576806  0.78355090    -0.11480
H195        H  0.31574832  0.80219001  0.74917663     0.08210
H196        H  0.20162187  0.74707004  0.69067151     0.05740
H197        H  0.25458727  0.69157997  0.80934767     0.05580
C198        C  0.36140997  0.79207714  0.87435645     0.02620
C199        C  0.38937961  0.75748945  0.88077339    -0.13530
C200        C  0.38166393  0.71673470  0.86251902     0.00120
C201        C  0.34812268  0.71224278  0.83088590    -0.12060
C202        C  0.32183619  0.74889027  0.81993648     0.02610
C203        C  0.32791304  0.78848487  0.84335104    -0.11480
H204        H  0.41682621  0.76195052  0.90277766     0.08210
H205        H  0.34287472  0.68110828  0.81477341     0.05740
H206        H  0.30738195  0.81639717  0.83685405     0.05580
C207        C  0.22615106  0.86228099  0.62774309     0.02620
C208        C  0.26592270  0.86780839  0.60721117    -0.13530
C209        C  0.30277680  0.84551551  0.61979429     0.00120
C210        C  0.30114359  0.81732050  0.65604505    -0.12060
C211        C  0.26114756  0.81000149  0.67793724     0.02610
C212        C  0.22337690  0.83239536  0.66297202    -0.11480
H213        H  0.26919657  0.89200051  0.58146232     0.08210
H214        H  0.33045972  0.80108325  0.66678294     0.05740
H215        H  0.19250512  0.82715474  0.67905350     0.05580
C216        C  0.14727651  0.63213443  0.70138802     0.02620
C217        C  0.11999728  0.62502215  0.73698638    -0.13530
C218        C  0.12867016  0.64107111  0.77910126     0.00120
C219        C  0.16385678  0.66998813  0.78465843    -0.12060
C220        C  0.18975482  0.68137988  0.74748273     0.02610
C221        C  0.18196669  0.66077879  0.70620424    -0.11480
H222        H  0.09230120  0.60385756  0.73225014     0.08210
H223        H  0.17077401  0.68363331  0.81697893     0.05740
H224        H  0.20260600  0.66714517  0.67799182     0.05580
C225        C  0.75323146  0.27891388  0.22061558     0.02620
C226        C  0.78473411  0.27998600  0.25426438    -0.13530
C227        C  0.78548962  0.24870108  0.28818315     0.00120
C228        C  0.75399046  0.21563308  0.28809128    -0.12060
C229        C  0.72201902  0.21371733  0.25490108     0.02610
C230        C  0.72199416  0.24536665  0.22130251    -0.11480
H231        H  0.80863628  0.30569281  0.25440486     0.08210
H232        H  0.75423045  0.19143658  0.31392412     0.05740
H233        H  0.69774938  0.24361322  0.19551339     0.05580
C234        C  0.87969576  0.22175768  0.36643213     0.02620
C235        C  0.88673175  0.26304613  0.38382184    -0.13530
C236        C  0.85896040  0.29746074  0.37601172     0.00120
C237        C  0.82511127  0.29256564  0.34565309    -0.12060
C238        C  0.81874433  0.25199450  0.32403394     0.02610
C239        C  0.84529947  0.21587384  0.33601017    -0.11480
H240        H  0.91412975  0.26847807  0.40565783     0.08210
H241        H  0.80447558  0.32018799  0.33831427     0.05740
H242        H  0.83974535  0.18413225  0.32134351     0.05580
C243        C  0.78955152  0.36123926  0.13286336     0.02620
C244        C  0.74995577  0.37946801  0.12226047    -0.13530
C245        C  0.71174686  0.36622931  0.14163519     0.00120
C246        C  0.71243235  0.33327390  0.17357350    -0.12060
C247        C  0.75237104  0.31356639  0.18573250     0.02610
C248        C  0.79127098  0.32807822  0.16496168    -0.11480
H249        H  0.74869737  0.40486170  0.09747096     0.08210
H250        H  0.68236101  0.32330772  0.18885810     0.05740
H251        H  0.82221207  0.31364431  0.17336581     0.05580
C252        C  0.62607233  0.14021933  0.28443690     0.02620
C253        C  0.63453959  0.10555138  0.25547260    -0.13530
C254        C  0.66420966  0.10941258  0.22117638     0.00120
C255        C  0.69282232  0.14490720  0.22098550    -0.12060
C256        C  0.69002820  0.17732479  0.25423867     0.02610
C257        C  0.65553469  0.17550691  0.28528494    -0.11480
H258        H  0.61423552  0.07688883  0.25618608     0.08210
H259        H  0.71599173  0.14811567  0.19426353     0.05740
H260        H  0.65122449  0.20181751  0.30896079     0.05580
O261        O  0.95223260  0.56628574  0.97274435    -0.80650
O262        O  0.05730171  0.56705655  0.02676294    -0.80670
O263        O  0.98583767  0.56196877  0.06861896    -0.80680
O264        O  0.03169131  0.55935713  0.93222858    -0.80620
O265        O  0.03784361  0.53162907  0.10344143    -0.80740
O266        O  0.98111202  0.53128265  0.89511384    -0.80660
O267        O  0.09888483  0.54079286  0.97879439    -0.80650
O268        O  0.91365912  0.54528853  0.02629601    -0.80680
C269        C  0.91908140  0.57121087  0.99452424     1.09040
C270        C  0.09250200  0.56914755  0.00850499     1.08930
C271        C  0.00728062  0.55999958  0.10312768     1.09070
C272        C  0.01132351  0.55868732  0.89754634     1.08940
O273        O  0.95669059  0.44787737  0.93113948    -0.80650
O274        O  0.03915014  0.44467319  0.05137048    -0.80720
O275        O  0.93834045  0.44968116  0.03785312    -0.80660
O276        O  0.07320806  0.44652909  0.96916555    -0.80640
O277        O  0.10893644  0.47772382  0.02140731    -0.80690
O278        O  0.90050071  0.47997365  0.98739345    -0.80660
O279        O  0.02119645  0.46101954  0.90452600    -0.80620
O280        O  0.99432466  0.46787804  0.09872308    -0.80690
Co281      Co  0.95185487  0.50674476  0.95090818     1.51530
Co282      Co  0.04944020  0.50557097  0.04055227     1.51690
Co283      Co  0.96148822  0.50588766  0.05289030     1.51570
Co284      Co  0.05143658  0.50208661  0.94959818     1.51470
O285        O  0.00186323  0.49970299  0.99635917    -1.42580
C286        C  0.98785399  0.43655351  0.90736476     1.08970
C287        C  0.02360941  0.44073171  0.08828171     1.09060
C288        C  0.90360311  0.45210523  0.01824166     1.09000
C289        C  0.10774161  0.44971344  0.98981983     1.08970
C290        C  0.21704217  0.11888188  0.35367910     0.02620
C291        C  0.25350539  0.11279163  0.37975354    -0.13530
C292        C  0.28824879  0.14112687  0.37792418     0.00120
C293        C  0.28850083  0.17424415  0.34614612    -0.12060
C294        C  0.25312359  0.17941226  0.31716138     0.02610
C295        C  0.21656408  0.15217488  0.32197263    -0.11480
H296        H  0.25374807  0.08666101  0.40370312     0.08210
H297        H  0.31601744  0.19586987  0.34397873     0.05740
H298        H  0.18806788  0.15713329  0.30177631     0.05580
C299        C  0.25469743  0.21350590  0.28252219     0.02620
C300        C  0.22201641  0.24555577  0.27996103    -0.13530
C301        C  0.22387736  0.27800807  0.24747788     0.00120
C302        C  0.25891675  0.27834009  0.21762955    -0.12060
C303        C  0.29170340  0.24672510  0.21962435     0.02610
C304        C  0.28944798  0.21435086  0.25212097    -0.11480
H305        H  0.19518414  0.24518794  0.30312861     0.08210
H306        H  0.26054083  0.30317153  0.19245164     0.05740
H307        H  0.31452481  0.18956543  0.25347816     0.05580
C308        C  0.14217389  0.35485466  0.19689045     0.02620
C309        C  0.13612095  0.38379655  0.23149819    -0.13530
C310        C  0.14998621  0.37445146  0.27387531     0.00120
C311        C  0.17748790  0.33832509  0.28044309    -0.12060
C312        C  0.18951541  0.31177404  0.24370882     0.02610
C313        C  0.16975546  0.31902114  0.20218923    -0.11480
H314        H  0.11620294  0.41256869  0.22612608     0.08210
H315        H  0.18975395  0.33139925  0.31314182     0.05740
H316        H  0.17644117  0.29760490  0.17431450     0.05580
C317        C  0.39178665  0.27841802  0.15324775     0.02620
C318        C  0.36003286  0.27774433  0.18692192    -0.13530
C319        C  0.32679958  0.24632214  0.18595854     0.00120
C320        C  0.32546705  0.21582884  0.15099999    -0.12060
C321        C  0.35838257  0.21475391  0.11874501     0.02610
C322        C  0.39119872  0.24591621  0.12077220    -0.11480
H323        H  0.36033729  0.30220015  0.21293418     0.08210
H324        H  0.29886496  0.19307112  0.14912373     0.05740
H325        H  0.41635176  0.24562379  0.09573809     0.05580
C326        C  0.75813102  0.21482075  0.72733674     0.02620
C327        C  0.78992499  0.24753753  0.72830503    -0.13530
C328        C  0.78919505  0.28033270  0.76109013     0.00120
C329        C  0.75644548  0.28019565  0.79342125    -0.12060
C330        C  0.72418537  0.24807149  0.79324892     0.02610
C331        C  0.72513992  0.21542864  0.75999591    -0.11480
H332        H  0.81487612  0.24794959  0.70303373     0.08210
H333        H  0.75596401  0.30536644  0.81878498     0.05740
H334        H  0.70064718  0.19030139  0.75986300     0.05580
C335        C  0.88434531  0.35428343  0.78986176     0.02620
C336        C  0.87638919  0.38803152  0.76019186    -0.13530
C337        C  0.84682643  0.38313241  0.72576511     0.00120
C338        C  0.81834412  0.34757559  0.72627159    -0.12060
C339        C  0.82091050  0.31650154  0.76007588     0.02610
C340        C  0.85489436  0.31924555  0.79123360    -0.11480
H341        H  0.89750909  0.41607277  0.76023059     0.08210
H342        H  0.79565225  0.34305837  0.69935800     0.05740
H343        H  0.85898601  0.29365929  0.81526385     0.05580
C344        C  0.67170922  0.22257933  0.90378284     0.02620
C345        C  0.64076253  0.25560482  0.90605606    -0.13530
C346        C  0.62714031  0.27668993  0.86773272     0.00120
C347        C  0.65464319  0.27486449  0.83011382    -0.12060
C348        C  0.69191041  0.24761079  0.83008734     0.02610
C349        C  0.69862351  0.21970355  0.86616877    -0.11480
H350        H  0.62156513  0.25884451  0.93597126     0.08210
H351        H  0.64695782  0.29359840  0.80101746     0.05740
H352        H  0.72308996  0.19434818  0.86405041     0.05580
C353        C  0.72426263  0.14537295  0.62797100     0.02620
C354        C  0.72331151  0.17670180  0.66236313    -0.13530
C355        C  0.75897466  0.18096637  0.69141550     0.00120
C356        C  0.79590109  0.15387737  0.68460098    -0.12060
C357        C  0.79562498  0.12204820  0.65065788     0.02610
C358        C  0.75961767  0.11782076  0.62387726    -0.11480
H359        H  0.69513237  0.19753802  0.66647656     0.08210
H360        H  0.82436553  0.15773005  0.70509160     0.05740
H361        H  0.75962860  0.09269361  0.59833252     0.05580
C362        C  0.75666581  0.78730747  0.27902807     0.02620
C363        C  0.78955877  0.75527766  0.27688289    -0.13530
C364        C  0.78893733  0.72146561  0.24485666     0.00120
C365        C  0.75445300  0.72044642  0.21419557    -0.12060
C366        C  0.72080134  0.75213624  0.21542887     0.02610
C367        C  0.72243882  0.78544907  0.24804373    -0.11480
H368        H  0.81515168  0.75582541  0.30135557     0.08210
H369        H  0.75311320  0.69417888  0.19009226     0.05740
H370        H  0.69641210  0.80917130  0.25016890     0.05580
C371        C  0.72818254  0.84176039  0.38936785     0.02620
C372        C  0.72486162  0.81618372  0.35059034    -0.13530
C373        C  0.75630640  0.81954039  0.31673114     0.00120
C374        C  0.78706461  0.85374700  0.31958482    -0.12060
C375        C  0.78849251  0.88123960  0.35760094     0.02610
C376        C  0.76322772  0.86977123  0.39408715    -0.11480
H377        H  0.69768139  0.79437109  0.34654855     0.08210
H378        H  0.80869602  0.85935517  0.29202284     0.05740
H379        H  0.76613756  0.88809597  0.42471408     0.05580
C380        C  0.88242110  0.64100167  0.21665243     0.02620
C381        C  0.88737166  0.62232684  0.25786521    -0.13530
C382        C  0.85859517  0.63022093  0.29204445     0.00120
C383        C  0.82617464  0.66207837  0.28741791    -0.12060
C384        C  0.82192218  0.68511380  0.24722573     0.02610
C385        C  0.84969343  0.67333251  0.21100490    -0.11480
H386        H  0.91349931  0.59903614  0.26302159     0.08210
H387        H  0.80486422  0.66934939  0.31504297     0.05740
H388        H  0.84605919  0.68912870  0.17938543     0.05580
C389        C  0.63721556  0.77810247  0.12428902     0.02620
C390        C  0.61710137  0.73777988  0.12167620    -0.13530
C391        C  0.62543123  0.70445002  0.15077653     0.00120
C392        C  0.65962207  0.70879812  0.18115626    -0.12060
C393        C  0.68281581  0.74856560  0.18430416     0.02610
C394        C  0.67004256  0.78391445  0.15674140    -0.11480
H395        H  0.59448507  0.73110846  0.09505798     0.08210
H396        H  0.66837323  0.68150907  0.20176915     0.05740
H397        H  0.68627748  0.81490155  0.15986991     0.05580
C398        C  0.22886473  0.74772765  0.29021415     0.02620
C399        C  0.22778017  0.71548795  0.25655872    -0.13530
C400        C  0.25743864  0.71604496  0.22084412     0.00120
C401        C  0.28846412  0.74957472  0.21912652    -0.12060
C402        C  0.29021678  0.78235253  0.25207966     0.02610
C403        C  0.26022218  0.78095394  0.28737140    -0.11480
H404        H  0.20381605  0.68991430  0.25808991     0.08210
H405        H  0.31143177  0.75006601  0.19198831     0.05740
H406        H  0.26136513  0.80585057  0.31293218     0.05580
C407        C  0.38055990  0.86105991  0.28573822     0.02620
C408        C  0.38990245  0.87940916  0.24540040    -0.13530
C409        C  0.36533197  0.87132837  0.20826700     0.00120
C410        C  0.33258167  0.83953520  0.20971764    -0.12060
C411        C  0.32387676  0.81751194  0.25003719     0.02610
C412        C  0.34783786  0.82937058  0.28846585    -0.11480
H413        H  0.41640144  0.90252457  0.24319785     0.08210
H414        H  0.31421349  0.83212284  0.18017076     0.05740
H415        H  0.34134065  0.81403837  0.31986072     0.05580
C416        C  0.16178441  0.70892443  0.38940382     0.02620
C417        C  0.18904992  0.70796183  0.35185868    -0.13530
C418        C  0.19771701  0.74705487  0.32861998     0.00120
C419        C  0.17570468  0.78577881  0.34205681    -0.12060
C420        C  0.14848539  0.78594987  0.37962333     0.02610
C421        C  0.14431747  0.74813385  0.40377349    -0.11480
H422        H  0.20290256  0.67731677  0.34071661     0.08210
H423        H  0.17907169  0.81523382  0.32299504     0.05740
H424        H  0.12212136  0.74773540  0.43169831     0.05580
C425        C  0.29190455  0.62505144  0.14034127     0.02620
C426        C  0.25366855  0.61898456  0.11730560    -0.13530
C427        C  0.21625359  0.64214884  0.12749972     0.00120
C428        C  0.21699624  0.67357995  0.16173944    -0.12060
C429        C  0.25603177  0.68183655  0.18510071     0.02610
C430        C  0.29379985  0.65741911  0.17369788    -0.11480
H431        H  0.25281290  0.59479913  0.09085104     0.08210
H432        H  0.18765160  0.69134927  0.17010723     0.05740
H433        H  0.32401627  0.66323908  0.19080894     0.05580
O434        O  0.96492902  0.93875081  0.55427050    -0.80650
O435        O  0.04318226  0.05430867  0.56014158    -0.80670
O436        O  0.06922557  0.95922086  0.55064219    -0.80680
O437        O  0.93962151  0.02104457  0.55729691    -0.80620
O438        O  0.10544546  0.01077134  0.52209247    -0.80740
O439        O  0.89709353  0.98011800  0.52274381    -0.80660
O440        O  0.98367156  0.08777892  0.54495029    -0.80650
O441        O  0.01615693  0.89846918  0.53068982    -0.80680
C442        C  0.98446129  0.90427372  0.55700329     1.09040
C443        C  0.01467572  0.08064058  0.57162018     1.08930
C444        C  0.10363584  0.97930354  0.54893397     1.09070
C445        C  0.90295025  0.00652330  0.55439704     1.08940
O446        O  0.93770979  0.96313053  0.43321663    -0.80650
O447        O  0.05761990  0.03117707  0.43541025    -0.80720
O448        O  0.02488384  0.93586988  0.43291301    -0.80660
O449        O  0.97290164  0.06754294  0.44400584    -0.80640
O450        O  0.02381784  0.10075460  0.47663267    -0.80690
O451        O  0.98063840  0.89499923  0.46349626    -0.80660
O452        O  0.90728651  0.02152945  0.45814367    -0.80620
O453        O  0.09435089  0.97531085  0.45370896    -0.80690
Co454      Co  0.95072389  0.94949586  0.49358766     1.51530
Co455      Co  0.05119615  0.04334803  0.49798333     1.51690
Co456      Co  0.04711704  0.94626432  0.49215297     1.51570
Co457      Co  0.95525688  0.04493492  0.50068369     1.51470
O458        O  0.00140317  0.99629161  0.49667390    -1.42580
C459        C  0.90967565  0.99160877  0.42875169     1.08970
C460        C  0.09006261  0.00843387  0.42938767     1.09060
C461        C  0.01009479  0.89924786  0.43476752     1.09000
C462        C  0.99445701  0.10086443  0.44756431     1.08970
C463        C  0.04020854  0.86445516  0.41984363    -0.06630
C464        C  0.07251099  0.85279671  0.45019531    -0.17760
C465        C  0.11125474  0.83287087  0.43664911     0.10570
C466        C  0.11737617  0.82120540  0.39172530    -0.06560
C467        C  0.08569085  0.83340713  0.36102319    -0.17790
C468        C  0.04826591  0.85615947  0.37448863     0.10600
S469        S  0.15309174  0.82228170  0.47705224    -0.32760
S470        S  0.01249823  0.87525584  0.33239346    -0.32760
H471        H  0.02279950  0.91889731  0.34191053     0.28610
H472        H  0.12910985  0.83483146  0.51469388     0.28600
H473        H  0.06900832  0.86219440  0.48444704     0.19190
H474        H  0.08964506  0.82440488  0.32651472     0.19200
C475        C  0.81539258  0.92193898  0.36157858    -0.06630
C476        C  0.85747237  0.92311528  0.34414081    -0.17760
C477        C  0.88681211  0.95497747  0.35852056     0.10570
C478        C  0.87612951  0.98241133  0.39486067    -0.06560
C479        C  0.83252434  0.98646953  0.40648885    -0.17790
C480        C  0.80168758  0.95839160  0.38791955     0.10600
S481        S  0.93852291  0.95812836  0.33138927    -0.32760
S482        S  0.74567504  0.97113787  0.39898271    -0.32760
H483        H  0.73042723  0.95078132  0.36024576     0.28610
H484        H  0.94945852  0.99925645  0.34878935     0.28600
H485        H  0.86838013  0.89827543  0.32100358     0.19190
H486        H  0.82278131  0.00943172  0.43209336     0.19200
C487        C  0.83279005  0.09523337  0.63597678    -0.06630
C488        C  0.83285712  0.05071199  0.64694469    -0.17760
C489        C  0.85208457  0.01920104  0.61889364     0.10570
C490        C  0.86976142  0.03208211  0.57804362    -0.06560
C491        C  0.86984448  0.07657299  0.56762972    -0.17790
C492        C  0.85355039  0.10800017  0.59668539     0.10600
S493        S  0.85336595  0.96345518  0.63687384    -0.32760
S494        S  0.85644172  0.16410604  0.57993223    -0.32760
H495        H  0.85579545  0.18146660  0.62307805     0.28610
H496        H  0.85852939  0.94477555  0.59460478     0.28600
H497        H  0.81560074  0.04021147  0.67617220     0.19190
H498        H  0.88553814  0.08731430  0.53751937     0.19200
C499        C  0.17868990  0.09394502  0.36723312    -0.06630
C500        C  0.16803697  0.05494865  0.34505109    -0.17760
C501        C  0.14110511  0.02382267  0.36511598     0.10570
C502        C  0.12651043  0.03114619  0.40879905    -0.06560
C503        C  0.13791241  0.06986047  0.43066368    -0.17790
C504        C  0.16204412  0.10169816  0.41003383     0.10600
S505        S  0.12624001  0.97616597  0.33359506    -0.32760
S506        S  0.17246922  0.15101814  0.44115961    -0.32760
H507        H  0.17768409  0.17791026  0.40420578     0.28610
H508        H  0.11415920  0.95044179  0.36972009     0.28600
H509        H  0.18183441  0.04815307  0.31273049     0.19190
H510        H  0.12554282  0.07662068  0.46364278     0.19200
C511        C  0.98010728  0.39760575  0.87911941    -0.06630
C512        C  0.98929107  0.39908065  0.83393972    -0.17760
C513        C  0.96238660  0.37766113  0.80354892     0.10570
C514        C  0.92353144  0.35775202  0.81869806    -0.06560
C515        C  0.92017454  0.34855503  0.86381808    -0.17790
C516        C  0.94993730  0.36627836  0.89373261     0.10600
S517        S  0.97817758  0.37871001  0.74602545    -0.32760
S518        S  0.94604838  0.35104213  0.95086267    -0.32760
H519        H  0.98678241  0.36756733  0.96313691     0.28610
H520        H  0.95245974  0.34314057  0.73310352     0.28600
H521        H  0.01519769  0.41924000  0.82195629     0.19190
H522        H  0.89292617  0.33030308  0.87632873     0.19200
C523        C  0.98586845  0.58141917  0.14134933    -0.06630
C524        C  0.95224648  0.55680149  0.15960254    -0.17760
C525        C  0.91497993  0.57635987  0.17736869     0.10570
C526        C  0.91209048  0.62231679  0.18205849    -0.06560
C527        C  0.94602204  0.64736126  0.16478807    -0.17790
C528        C  0.98187426  0.62747907  0.14331255     0.10600
S529        S  0.87187202  0.54053545  0.19437618    -0.32760
S530        S  0.02078323  0.66242306  0.11708506    -0.32760
H531        H  0.05407672  0.63111772  0.11366016     0.28610
H532        H  0.83842474  0.57149671  0.19014631     0.28600
H533        H  0.95267418  0.52169534  0.15554620     0.19190
H534        H  0.94504605  0.68242785  0.16872967     0.19200
C535        C  0.05102730  0.41653514  0.11920090    -0.06630
C536        C  0.09427972  0.43071329  0.12028325    -0.17760
C537        C  0.12741507  0.40475555  0.13649538     0.10570
C538        C  0.11723694  0.36530614  0.15709863    -0.06560
C539        C  0.07419252  0.35010709  0.15521330    -0.17790
C540        C  0.04108283  0.37499607  0.13559556     0.10600
S541        S  0.18173532  0.42621703  0.13568067    -0.32760
S542        S  0.98734363  0.35242952  0.13292491    -0.32760
H543        H  0.96511538  0.39196204  0.12711406     0.28610
H544        H  0.20259396  0.38588553  0.14161494     0.28600
H545        H  0.10272438  0.46196638  0.10645710     0.19190
H546        H  0.06575716  0.32037715  0.17212567     0.19200
C547        C  0.12733473  0.58974806  0.03443496    -0.06630
C548        C  0.14157786  0.56552653  0.07074017    -0.17760
C549        C  0.16502001  0.58426934  0.10503213     0.10570
C550        C  0.17731640  0.62834743  0.10270883    -0.06560
C551        C  0.16237700  0.65339638  0.06703467    -0.17790
C552        C  0.13652977  0.63473216  0.03346645     0.10600
S553        S  0.18062598  0.54933350  0.15009253    -0.32760
S554        S  0.11613581  0.66965950  0.99065254    -0.32760
H555        H  0.10795482  0.63658549  0.95939525     0.28610
H556        H  0.18559076  0.58288891  0.18155837     0.28600
H557        H  0.13226592  0.53189165  0.07407818     0.19190
H558        H  0.17234249  0.68703165  0.06435379     0.19200
C559        C  0.86742373  0.42963676  0.04053312    -0.06630
C560        C  0.86588181  0.38387778  0.03815280    -0.17760
C561        C  0.84419256  0.35917869  0.07028401     0.10570
C562        C  0.82648474  0.38008190  0.10806337    -0.06560
C563        C  0.83089544  0.42550367  0.11187386    -0.17790
C564        C  0.84838789  0.45020153  0.07773717     0.10600
S565        S  0.84025190  0.30129280  0.06119549    -0.32760
S566        S  0.84456841  0.50834028  0.08318305    -0.32760
H567        H  0.83608609  0.51455856  0.03798585     0.28610
H568        H  0.79773291  0.29690595  0.07715112     0.28600
H569        H  0.88180488  0.36710531  0.01115048     0.19190
H570        H  0.81582667  0.44242512  0.13959217     0.19200
C571        C  0.97665469  0.13917094  0.42508231    -0.06630
C572        C  0.96865522  0.13547553  0.37924928    -0.17760
C573        C  0.93642537  0.16059909  0.35843082     0.10570
C574        C  0.90885284  0.18730464  0.38448410    -0.06560
C575        C  0.91586261  0.18879795  0.43054124    -0.17790
C576        C  0.95101478  0.16816732  0.45007443     0.10600
S577        S  0.93191712  0.15662072  0.29921348    -0.32760
S578        S  0.96004714  0.17876846  0.50780896    -0.32760
H579        H  0.00547790  0.17651346  0.50460924     0.28610
H580        H  0.92349692  0.20111041  0.29281059     0.28600
H581        H  0.98686238  0.11184896  0.35980309     0.19190
H582        H  0.89530849  0.20912932  0.45139786     0.19200
C583        C  0.03151285  0.58193438  0.86049727    -0.06630
C584        C  0.04013579  0.62675590  0.86622054    -0.17760
C585        C  0.07342579  0.64757930  0.84227905     0.10570
C586        C  0.10089942  0.62242428  0.81471411    -0.06560
C587        C  0.09389124  0.57722398  0.81209408    -0.17790
C588        C  0.05795916  0.55791605  0.83127321     0.10600
S589        S  0.08055104  0.70561699  0.84713982    -0.32760
S590        S  0.04835862  0.50193658  0.81749922    -0.32760
H591        H  0.00294567  0.50601274  0.81837411     0.28610
H592        H  0.04615467  0.71322057  0.87685389     0.28600
H593        H  0.02151241  0.64506157  0.89049487     0.19190
H594        H  0.11456737  0.55717716  0.79107198     0.19200
C595        C  0.14106274  0.95798222  0.57026187    -0.06630
C596        C  0.13928013  0.95056477  0.61613205    -0.17760
C597        C  0.16525514  0.91895178  0.63661611     0.10570
C598        C  0.19038207  0.89025269  0.61018646    -0.06560
C599        C  0.18901625  0.89558881  0.56393362    -0.17790
C600        C  0.16801909  0.93073058  0.54448900     0.10600
S601        S  0.16518919  0.91752285  0.69608726    -0.32760
S602        S  0.17695084  0.93859157  0.48634991    -0.32760
H603        H  0.17729647  0.98426756  0.48958423     0.28610
H604        H  0.21043665  0.91347106  0.69981951     0.28600
H605        H  0.11699732  0.96941644  0.63655262     0.19190
H606        H  0.20791975  0.87403169  0.54265199     0.19200
C607        C  0.58446783  0.85831435  0.01955218    -0.06630
C608        C  0.62871248  0.86237719  0.03076973    -0.17760
C609        C  0.64770845  0.83728786  0.06453425     0.10570
C610        C  0.62102091  0.81101912  0.09141643    -0.06560
C611        C  0.57637149  0.80945717  0.08097851    -0.17790
C612        C  0.55958151  0.82816043  0.04296975     0.10600
S613        S  0.70547535  0.84067876  0.07138348    -0.32760
S614        S  0.50546673  0.81299704  0.02714438    -0.32760
H615        H  0.51277469  0.81797474  0.98156140     0.28610
H616        H  0.71131747  0.79571515  0.07744260     0.28600
H617        H  0.64828797  0.88625603  0.01387895     0.19190
H618        H  0.55435434  0.79059645  0.10104645     0.19200
C619        C  0.37154147  0.83121617  0.90049054    -0.06630
C620        C  0.35758002  0.83260399  0.94495473    -0.17760
C621        C  0.38096726  0.85562482  0.97745003     0.10570
C622        C  0.41978797  0.87630810  0.96541770    -0.06560
C623        C  0.43314119  0.87493749  0.92090736    -0.17790
C624        C  0.40873715  0.85444550  0.88844161     0.10600
S625        S  0.36011431  0.85709035  0.03314026    -0.32760
S626        S  0.42872615  0.85559224  0.83238174    -0.32760
H627        H  0.38819298  0.84898494  0.81237497     0.28610
H628        H  0.39951124  0.86706160  0.05397980     0.28600
H629        H  0.32995984  0.81333482  0.95485986     0.19190
H630        H  0.46225021  0.89185899  0.91086662     0.19200
C631        C  0.60485213  0.03094984  0.12250471    -0.06630
C632        C  0.59956018  0.07647786  0.12376603    -0.17760
C633        C  0.62381603  0.10293815  0.15135474     0.10570
C634        C  0.65338574  0.08410463  0.18099395    -0.06560
C635        C  0.65919277  0.03844118  0.18018997    -0.17790
C636        C  0.63596391  0.01169552  0.15037795     0.10600
S637        S  0.61101027  0.16031626  0.15140224    -0.32760
S638        S  0.64704048  0.95404615  0.14990716    -0.32760
H639        H  0.63296600  0.94576948  0.10650804     0.28610
H640        H  0.65441319  0.17317859  0.14706283     0.28600
H641        H  0.57554682  0.09205708  0.10305369     0.19190
H642        H  0.68064113  0.02350915  0.20403249     0.19200
C643        C  0.43595106  0.96154551  0.13591126    -0.06630
C644        C  0.39338069  0.97245376  0.14849015    -0.17760
C645        C  0.36544277  0.94098823  0.16663743     0.10570
C646        C  0.37911573  0.89711996  0.16979953    -0.06560
C647        C  0.42007861  0.88572948  0.15345477    -0.17790
C648        C  0.44911516  0.91734569  0.13900726     0.10600
S649        S  0.31292677  0.95690384  0.18767784    -0.32760
S650        S  0.50350876  0.90040284  0.12465770    -0.32760
H651        H  0.49719699  0.85525856  0.12788054     0.28610
H652        H  0.31728804  0.00172265  0.17983463     0.28600
H653        H  0.38179383  0.00532316  0.14317754     0.19190
H654        H  0.43134351  0.85257120  0.15769668     0.19200
C655        C  0.40660355  0.12064885  0.02930809    -0.06630
C656        C  0.38057310  0.10626411  0.06465561    -0.17760
C657        C  0.36105989  0.13582158  0.09371385     0.10570
C658        C  0.36199644  0.18057744  0.08365694    -0.06560
C659        C  0.37743012  0.19292649  0.04151452    -0.17790
C660        C  0.40169085  0.16388179  0.01526426     0.10600
S661        S  0.34368518  0.11450349  0.14615199    -0.32760
S662        S  0.42966280  0.18499441  0.96798569    -0.32760
H663        H  0.47071889  0.18041169  0.98760550     0.28610
H664        H  0.37109405  0.14173383  0.17102806     0.28600
H665        H  0.38158226  0.07235703  0.07428926     0.19190
H666        H  0.37610121  0.22683233  0.03198644     0.19200
C667        C  0.59520562  0.12961232  0.96674536    -0.06630
C668        C  0.62214259  0.15514766  0.99367211    -0.17760
C669        C  0.65311512  0.18291191  0.97458723     0.10570
C670        C  0.65896969  0.18310098  0.92804225    -0.06560
C671        C  0.63482337  0.15437731  0.90211180    -0.17790
C672        C  0.60086117  0.13099048  0.92015452     0.10600
S673        S  0.68277692  0.21892441  0.01058632    -0.32760
S674        S  0.56056329  0.10994405  0.88215350    -0.32760
H675        H  0.58597546  0.11117496  0.84353151     0.28610
H676        H  0.71482946  0.22973262  0.97949753     0.28600
H677        H  0.61859378  0.15406729  0.02929569     0.19190
H678        H  0.63738032  0.15622850  0.86643783     0.19200
C679        C  0.07752047  0.16709202  0.65392266    -0.06630
C680        C  0.08493891  0.12275267  0.66000625    -0.17760
C681        C  0.05615313  0.09247275  0.64183514     0.10570
C682        C  0.02342674  0.10665074  0.61235674    -0.06560
C683        C  0.01049439  0.15024288  0.61495106    -0.17790
C684        C  0.03641820  0.18044231  0.63773976     0.10600
S685        S  0.06382059  0.03611415  0.65489959    -0.32760
S686        S  0.01921233  0.23651640  0.64287433    -0.32760
H687        H  0.97904873  0.23145095  0.62157195     0.28610
H688        H  0.02255943  0.02280637  0.64055193     0.28600
H689        H  0.11444969  0.11164260  0.67571309     0.19190
H690        H  0.98268508  0.16118163  0.59645509     0.19200
C691        C  0.36835613  0.10479296  0.83352456    -0.06630
C692        C  0.35097451  0.06273178  0.83851154    -0.17760
C693        C  0.37444882  0.02943388  0.85974650     0.10570
C694        C  0.41679346  0.03784773  0.87494919    -0.06560
C695        C  0.43328693  0.08019128  0.87090417    -0.17790
C696        C  0.40931439  0.11364148  0.85198672     0.10600
S697        S  0.34891663  0.97727462  0.86634213    -0.32760
S698        S  0.43474335  0.16620506  0.84764897    -0.32760
H699        H  0.39593112  0.18982434  0.84262582     0.28610
H700        H  0.38725013  0.95318770  0.87223349     0.28600
H701        H  0.32026308  0.05498465  0.82311891     0.19190
H702        H  0.46479024  0.08785723  0.88460292     0.19200
C703        C  0.14470585  0.42783562  0.96782730    -0.06630
C704        C  0.15357607  0.38392085  0.97738422    -0.17760
C705        C  0.17387155  0.35625314  0.94590926     0.10570
C706        C  0.18250950  0.37172435  0.90285486    -0.06560
C707        C  0.17086169  0.41447899  0.89277954    -0.17790
C708        C  0.15522716  0.44289685  0.92503447     0.10600
S709        S  0.18798467  0.30183060  0.96234236    -0.32760
S710        S  0.14905305  0.49864097  0.90891826    -0.32760
H711        H  0.16962453  0.51397693  0.94746588     0.28610
H712        H  0.19089435  0.28426082  0.91939641     0.28600
H713        H  0.14343307  0.37078829  0.00886410     0.19190
H714        H  0.17901339  0.42741445  0.86056057     0.19200
C715        C  0.83948722  0.63191035  0.90005597    -0.06630
C716        C  0.84845318  0.65478836  0.93948340    -0.17760
C717        C  0.87182832  0.63499850  0.97379347     0.10570
C718        C  0.88375500  0.59083007  0.96953515    -0.06560
C719        C  0.87489619  0.56865484  0.92976349    -0.17790
C720        C  0.85585758  0.58943309  0.89434730     0.10600
S721        S  0.88557520  0.66732169  0.02169556    -0.32760
S722        S  0.84883153  0.55847991  0.84381891    -0.32760
H723        H  0.84265382  0.59478736  0.81651760     0.28610
H724        H  0.89354392  0.63227046  0.05015101     0.28600
H725        H  0.83519769  0.68720569  0.94446865     0.19190
H726        H  0.88620585  0.53552673  0.92477327     0.19200
C727        C  0.90079008  0.82808549  0.63680507    -0.06630
C728        C  0.88694930  0.84557601  0.59685128    -0.17760
C729        C  0.91626869  0.86417658  0.56763664     0.10570
C730        C  0.96012913  0.87030568  0.58025666    -0.06560
C731        C  0.97360581  0.85567703  0.62175211    -0.17790
C732        C  0.94465563  0.83349238  0.64952656     0.10600
S733        S  0.89717392  0.87825077  0.51308710    -0.32760
S734        S  0.96581272  0.81034709  0.69957633    -0.32760
H735        H  0.92553902  0.80627964  0.72090664     0.28610
H736        H  0.85255543  0.87423289  0.52160596     0.28600
H737        H  0.85411281  0.83927433  0.58598686     0.19190
H738        H  0.00642596  0.86185429  0.63268507     0.19200
C739        C  0.58148411  0.96527986  0.86458093    -0.06630
C740        C  0.55881345  0.92879018  0.84916232    -0.17760
C741        C  0.58039168  0.89296618  0.83126387     0.10570
C742        C  0.62537517  0.89506720  0.82300937    -0.06560
C743        C  0.64833117  0.93194018  0.83725542    -0.17790
C744        C  0.62701300  0.96634106  0.85943175     0.10600
S745        S  0.54840899  0.84581612  0.81709894    -0.32760
S746        S  0.65948125  0.01011156  0.88119686    -0.32760
H747        H  0.62514669  0.03944333  0.88828382     0.28610
H748        H  0.58304901  0.81591145  0.81804251     0.28600
H749        H  0.52430510  0.92614182  0.85549522     0.19190
H750        H  0.68259081  0.93451756  0.82988609     0.19200
C751        C  0.47364150  0.37655114  0.10054390    -0.06630
C752        C  0.43424326  0.38857044  0.12144441    -0.17760
C753        C  0.40789618  0.35810384  0.14200360     0.10570
C754        C  0.42276656  0.31490898  0.14639211    -0.06560
C755        C  0.46585404  0.30512301  0.13327968    -0.17790
C756        C  0.49123016  0.33527504  0.11004168     0.10600
S757        S  0.35316302  0.37520915  0.15446454    -0.32760
S758        S  0.54429374  0.31848387  0.09159978    -0.32760
H759        H  0.56296650  0.35979489  0.09776259     0.28610
H760        H  0.33392148  0.34178514  0.12930198     0.28600
H761        H  0.42077692  0.42087823  0.11700236     0.19190
H762        H  0.47844443  0.27246754  0.13778467     0.19200
C763        C  0.52194914  0.35799922  0.90410891    -0.06630
C764        C  0.52033114  0.31425142  0.91569356    -0.17760
C765        C  0.54948737  0.28449019  0.89642609     0.10570
C766        C  0.58425840  0.29991932  0.86962697    -0.06560
C767        C  0.57999551  0.34149670  0.85169548    -0.17790
C768        C  0.54707526  0.36947175  0.86677036     0.10600
S769        S  0.54153614  0.22778681  0.90837132    -0.32760
S770        S  0.54064223  0.42109463  0.84016168    -0.32760
H771        H  0.49925904  0.42992535  0.85775813     0.28610
H772        H  0.56439655  0.21282109  0.87087661     0.28600
H773        H  0.49894806  0.30382861  0.94197553     0.19190
H774        H  0.60361907  0.35335610  0.82826202     0.19200
C775        C  0.67296596  0.38885728  0.12499092    -0.06630
C776        C  0.65766456  0.42524254  0.14892199    -0.17760
C777        C  0.63647306  0.45968636  0.12746609     0.10570
C778        C  0.63238728  0.45878695  0.08097593    -0.06560
C779        C  0.64667489  0.42187648  0.05754212    -0.17790
C780        C  0.66500101  0.38648542  0.07906002     0.10600
S781        S  0.61523145  0.50382625  0.16083972    -0.32760
S782        S  0.68152574  0.34038981  0.04553152    -0.32760
H783        H  0.68313219  0.31057271  0.08049616     0.28610
H784        H  0.61324128  0.53459429  0.12675498     0.28600
H785        H  0.66452127  0.42801482  0.18395116     0.19190
H786        H  0.64083898  0.41925967  0.02229277     0.19200
C787        C  0.63929146  0.52116386  0.91342400    -0.06630
C788        C  0.66613176  0.54381830  0.94279909    -0.17760
C789        C  0.68834989  0.58099648  0.92979185     0.10570
C790        C  0.68980216  0.59270903  0.88445674    -0.06560
C791        C  0.66505738  0.56868657  0.85428661    -0.17790
C792        C  0.63841573  0.53463517  0.86859698     0.10600
S793        S  0.71278145  0.61335529  0.97331937    -0.32760
S794        S  0.60416157  0.50976542  0.82780596    -0.32760
H795        H  0.56620569  0.51220145  0.85333513     0.28610
H796        H  0.70988696  0.65306539  0.95069633     0.28600
H797        H  0.66565137  0.53592963  0.97760184     0.19190
H798        H  0.66625467  0.57659874  0.81947049     0.19200
C799        C  0.54267119  0.62223450  0.08122913    -0.06630
C800        C  0.52788052  0.63876961  0.12197802    -0.17760
C801        C  0.55641457  0.66120136  0.15067097     0.10570
C802        C  0.60129534  0.66411643  0.14035972    -0.06560
C803        C  0.61630588  0.64314648  0.10215012    -0.17790
C804        C  0.58741245  0.62610732  0.07140557     0.10600
S805        S  0.53369524  0.68787773  0.19869376    -0.32760
S806        S  0.60909528  0.61295345  0.01790278    -0.32760
H807        H  0.58345481  0.64492306  0.99746668     0.28610
H808        H  0.57329585  0.69330607  0.22093290     0.28600
H809        H  0.49430115  0.63443081  0.13137991     0.19190
H810        H  0.64992381  0.64700842  0.09240142     0.19200
C811        C  0.47928488  0.62990964  0.91255174    -0.06630
C812        C  0.45289063  0.65433943  0.94115796    -0.17760
C813        C  0.41743331  0.67802194  0.92551691     0.10570
C814        C  0.41010893  0.68122505  0.87932950    -0.06560
C815        C  0.43711460  0.65759049  0.85032249    -0.17790
C816        C  0.47087803  0.63123020  0.86658769     0.10600
S817        S  0.38043816  0.70278700  0.96523528    -0.32760
S818        S  0.50189860  0.59926921  0.82744983    -0.32760
H819        H  0.53843956  0.59407510  0.85465327     0.28610
H820        H  0.40450780  0.69369446  0.00351294     0.28600
H821        H  0.45747801  0.65146555  0.97644275     0.19190
H822        H  0.43245070  0.66028793  0.81496508     0.19200
C823        C  0.36951919  0.53471160  0.06865427    -0.06630
C824        C  0.35789569  0.52474157  0.11231138    -0.17760
C825        C  0.33632441  0.55560612  0.13944299     0.10570
C826        C  0.32873399  0.59835834  0.12383041    -0.06560
C827        C  0.34277516  0.60866226  0.08118421    -0.17790
C828        C  0.36073425  0.57711105  0.05325027     0.10600
S829        S  0.31773533  0.53817603  0.19287628    -0.32760
S830        S  0.37133286  0.59244794  0.99720275    -0.32760
H831        H  0.34881740  0.55627394  0.98038009     0.28610
H832        H  0.31649536  0.57983038  0.21233015     0.28600
H833        H  0.36635866  0.49319079  0.12559124     0.19190
H834        H  0.33523775  0.64044118  0.06778285     0.19200
C835        C  0.38832724  0.45823505  0.89443309    -0.06630
C836        C  0.39677572  0.41330421  0.88691785    -0.17760
C837        C  0.36624030  0.38542441  0.86860613     0.10570
C838        C  0.32663226  0.40251026  0.85414811    -0.06560
C839        C  0.31948567  0.44800636  0.85719057    -0.17790
C840        C  0.34987222  0.47599241  0.87717106     0.10600
S841        S  0.37787296  0.32777348  0.86992353    -0.32760
S842        S  0.33761531  0.53327882  0.88007071    -0.32760
H843        H  0.38100896  0.54692018  0.87775043     0.28610
H844        H  0.33737371  0.31561281  0.88714469     0.28600
H845        H  0.42620448  0.39827398  0.89884557     0.19190
H846        H  0.28878932  0.46139094  0.84629983     0.19200
C847        C  0.08209070  0.46509110  0.35660166    -0.06630
C848        C  0.12706601  0.46007048  0.36273530    -0.17760
C849        C  0.15104247  0.42966159  0.33754276     0.10570
C850        C  0.12881935  0.40101808  0.30885649    -0.06560
C851        C  0.08352544  0.40512589  0.30495886    -0.17790
C852        C  0.06106064  0.43889938  0.32520857     0.10600
S853        S  0.20900019  0.42834544  0.34427973    -0.32760
S854        S  0.00428689  0.44477600  0.31257639    -0.32760
H855        H  0.00304585  0.48990165  0.32072828     0.28610
H856        H  0.21871530  0.41747800  0.30013235     0.28600
H857        H  0.14318193  0.47876377  0.38835935     0.19190
H858        H  0.06587238  0.38378140  0.28269809     0.19200
C859        C  0.91576000  0.54186216  0.37900886    -0.06630
C860        C  0.92631536  0.58641928  0.38070265    -0.17760
C861        C  0.90211787  0.61767855  0.35870346     0.10570
C862        C  0.86711707  0.60474201  0.33212294    -0.06560
C863        C  0.85520120  0.56040706  0.33141124    -0.17790
C864        C  0.87906649  0.52883742  0.35469667     0.10600
S865        S  0.92075735  0.67319536  0.36141068    -0.32760
S866        S  0.86096410  0.47324555  0.35242839    -0.32760
H867        H  0.90247759  0.45444813  0.35291600     0.28610
H868        H  0.88005211  0.69216663  0.35332053     0.28600
H869        H  0.95403629  0.59726849  0.39974511     0.19190
H870        H  0.82931336  0.54987411  0.30972844     0.19200
C871        C  0.09706179  0.53658534  0.61715184    -0.06630
C872        C  0.14181065  0.53555453  0.62496617    -0.17760
C873        C  0.16170903  0.56930614  0.64901591     0.10570
C874        C  0.13728502  0.60675235  0.66104689    -0.06560
C875        C  0.09424345  0.61006872  0.64674870    -0.17790
C876        C  0.07316204  0.57414933  0.62912559     0.10600
S877        S  0.21733086  0.56187440  0.66520726    -0.32760
S878        S  0.01495676  0.57686859  0.62658695    -0.32760
H879        H  0.00931960  0.53756541  0.64926525     0.28610
H880        H  0.21121539  0.57517155  0.70936672     0.28600
H881        H  0.16077834  0.50763990  0.61411914     0.19190
H882        H  0.07494414  0.63816442  0.65659189     0.18920
C883        C  0.92592005  0.43463551  0.62846217    -0.06630
C884        C  0.90154926  0.46427451  0.65405963    -0.17760
C885        C  0.86858514  0.44955053  0.68231089     0.10570
C886        C  0.85897367  0.40459931  0.68395775    -0.06560
C887        C  0.87812472  0.37666442  0.65292000    -0.17790
C888        C  0.91260034  0.39029713  0.62679273     0.10600
S889        S  0.84278940  0.48847411  0.71881862    -0.32760
S890        S  0.94105107  0.34841428  0.59562126    -0.32760
H891        H  0.90794116  0.31711172  0.59580321     0.28610
H892        H  0.80810551  0.46139958  0.73067027     0.28600
H893        H  0.91037426  0.49836432  0.65473362     0.19190
H894        H  0.87094849  0.34221603  0.65424317     0.19200
C895        C  0.08379387  0.35154528  0.51531142    -0.06630
C896        C  0.12704405  0.35701035  0.52940874    -0.17760
C897        C  0.14824634  0.32603917  0.55605847     0.10570
C898        C  0.12474925  0.28998569  0.57247174    -0.06560
C899        C  0.08242675  0.28382905  0.55480194    -0.17790
C900        C  0.06307292  0.31248210  0.52527987     0.10600
S901        S  0.20499404  0.33451536  0.56638884    -0.32760
S902        S  0.00908309  0.30007139  0.50644277    -0.32760
H903        H  0.01660916  0.31443443  0.46309457     0.28610
H904        H  0.21529079  0.28989285  0.56770646     0.28600
H905        H  0.14379127  0.38681553  0.52128177     0.19190
H906        H  0.06205407  0.25744953  0.56500438     0.19200
C907        C  0.86941397  0.33755446  0.40059829    -0.06630
C908        C  0.85015437  0.34387350  0.44243328    -0.17760
C909        C  0.87137272  0.36743974  0.47608790     0.10570
C910        C  0.91402970  0.38221063  0.46869576    -0.06560
C911        C  0.93238826  0.37648801  0.42642119    -0.17790
C912        C  0.90997637  0.35644622  0.39218442     0.10600
S913        S  0.84277380  0.37607363  0.52749771    -0.32760
S914        S  0.93695709  0.35108967  0.33939285    -0.32760
H915        H  0.89890128  0.34497833  0.31465375     0.28610
H916        H  0.86807930  0.41039901  0.54384614     0.28600
H917        H  0.81950765  0.32838034  0.44963685     0.19190
H918        H  0.96418283  0.38926288  0.41920060     0.19200
C919        C  0.93040208  0.62399665  0.54136528    -0.06630
C920        C  0.88558864  0.61943785  0.54892783    -0.17760
C921        C  0.86353968  0.64673042  0.57918518     0.10570
C922        C  0.88767047  0.67544157  0.60626542    -0.06560
C923        C  0.93305904  0.67628631  0.60103117    -0.17790
C924        C  0.95351397  0.65475089  0.56632936     0.10600
S925        S  0.80532238  0.64380521  0.58092777    -0.32760
S926        S  0.00928773  0.66820719  0.55586136    -0.32760
H927        H  0.00399052  0.66961537  0.50974749     0.28610
H928        H  0.79879786  0.68901071  0.58455167     0.28600
H929        H  0.86770881  0.59487988  0.53075337     0.19190
H930        H  0.95247088  0.69773074  0.62156672     0.19200
C931        C  0.09684220  0.62190205  0.47522576    -0.06630
C932        C  0.07499665  0.64316173  0.44094131    -0.17760
C933        C  0.09732984  0.66541832  0.40811975     0.10570
C934        C  0.14269245  0.67061085  0.41131755    -0.06560
C935        C  0.16480561  0.65056332  0.44633233    -0.17790
C936        C  0.14242265  0.62515299  0.47744004     0.10600
S937        S  0.06742827  0.68881493  0.36258608    -0.32760
S938        S  0.17332888  0.59703525  0.51879348    -0.32760
H939        H  0.13866993  0.59285895  0.54861697     0.28610
H940        H  0.02573484  0.67729383  0.37707844     0.28600
H941        H  0.04036214  0.63867911  0.43750470     0.19190
H942        H  0.19930389  0.65570582  0.45014343     0.19200
C943        C  0.47315514  0.07936067  0.63754666    -0.06630
C944        C  0.44271403  0.05372761  0.65941652    -0.17760
C945        C  0.40568533  0.07211047  0.67866807     0.10570
C946        C  0.40062676  0.11795834  0.68058737    -0.06560
C947        C  0.43162896  0.14400386  0.65977174    -0.17790
C948        C  0.46702083  0.12509499  0.63718567     0.10600
S949        S  0.36482518  0.03669341  0.70169444    -0.32760
S950        S  0.50266778  0.16072853  0.60739173    -0.32760
H951        H  0.53728325  0.13111533  0.60407104     0.28610
H952        H  0.38827545  0.99750877  0.69730568     0.28600
H953        H  0.44562871  0.01861700  0.65738205     0.19190
H954        H  0.42888388  0.17912236  0.66206518     0.19200
C955        C  0.60501184  0.86493814  0.66979033    -0.06630
C956        C  0.56291755  0.84790938  0.66515530    -0.17760
C957        C  0.52984429  0.87170998  0.64413724     0.10570
C958        C  0.53841837  0.91416820  0.62934418    -0.06560
C959        C  0.58051562  0.93086673  0.63437609    -0.17790
C960        C  0.61396210  0.90613604  0.65210826     0.10600
S961        S  0.47764245  0.84657088  0.63736634    -0.32760
S962        S  0.66706531  0.93036793  0.65512818    -0.32760
H963        H  0.68994378  0.89081063  0.65826739     0.28610
H964        H  0.45420446  0.88525839  0.63051825     0.28600
H965        H  0.55515687  0.81706099  0.68026953     0.19190
H966        H  0.58827346  0.96261609  0.62118509     0.19200
C967        C  0.32440466  0.13269660  0.40849869    -0.06630
C968        C  0.31527298  0.12688085  0.45394072    -0.17760
C969        C  0.34542732  0.10731040  0.48233126     0.10570
C970        C  0.38556645  0.09368791  0.46501213    -0.06560
C971        C  0.39598743  0.10442928  0.42079651    -0.17790
C972        C  0.36572020  0.12201746  0.39225273     0.10600
S973        S  0.33078595  0.09997707  0.53942898    -0.32760
S974        S  0.38037435  0.12418001  0.33447806    -0.32760
H975        H  0.34208389  0.10452063  0.31921742     0.28610
H976        H  0.37325888  0.10370550  0.55584854     0.28600
H977        H  0.28349565  0.13545659  0.46675073     0.19190
H978        H  0.42688407  0.09525668  0.40640572     0.19200
C979        C  0.37630738  0.91758850  0.53264344    -0.06630
C980        C  0.36887723  0.87375533  0.52184440    -0.17760
C981        C  0.35037589  0.84539169  0.55287472     0.10570
C982        C  0.34218563  0.85995147  0.59670907    -0.06560
C983        C  0.35451096  0.90216459  0.60854488    -0.17790
C984        C  0.36779605  0.93149595  0.57658155     0.10600
S985        S  0.33544594  0.79172810  0.53432889    -0.32760
S986        S  0.37237561  0.98732024  0.59353164    -0.32760
H987        H  0.34716905  0.00148968  0.55771756     0.28610
H988        H  0.33205821  0.77378720  0.57677401     0.28600
H989        H  0.37806619  0.86143177  0.48945152     0.19190
H990        H  0.34668861  0.91452832  0.64134586     0.19200
C991        C  0.58698420  0.13664588  0.31372418    -0.06630
C992        C  0.59009563  0.14790954  0.35850517    -0.17760
C993        C  0.56053446  0.13131757  0.38908552     0.10570
C994        C  0.53072570  0.09872293  0.37553944    -0.06560
C995        C  0.52222291  0.09407583  0.33042235    -0.17790
C996        C  0.54867701  0.11497952  0.29928174     0.10600
S997        S  0.56460708  0.15011591  0.44563394    -0.32760
S998        S  0.53397423  0.11268068  0.24144108    -0.32760
H999        H  0.49383100  0.09197931  0.24725083     0.28610
H1000       H  0.52250645  0.13732802  0.45773045     0.28600
H1001       H  0.61697003  0.16727997  0.37031465     0.19190
H1002       H  0.49740871  0.07166171  0.31951525     0.19200
C1003       C  0.40652600  0.87867034  0.32274975    -0.06630
C1004       C  0.43877418  0.85268846  0.34198193    -0.17760
C1005       C  0.47331986  0.87177392  0.36524693     0.10570
C1006       C  0.47735674  0.91759910  0.36669034    -0.06560
C1007       C  0.44538634  0.94319308  0.34683726    -0.17790
C1008       C  0.40899254  0.92447155  0.32749976     0.10600
S1009       S  0.51058004  0.83641638  0.39363490    -0.32760
S1010       S  0.36592128  0.95942490  0.30755882    -0.32760
H1011       H  0.38587228  0.99947969  0.31708643     0.28610
H1012       H  0.54411972  0.86699782  0.39783357     0.28600
H1013       H  0.43770249  0.81764463  0.33783189     0.19190
H1014       H  0.44669010  0.97825934  0.35061356     0.19200
C1015       C  0.63203657  0.08613520  0.54286639    -0.06630
C1016       C  0.62284299  0.09372666  0.58825459    -0.17760
C1017       C  0.64990263  0.11739968  0.61572655     0.10570
C1018       C  0.68774027  0.13532704  0.59820577    -0.06560
C1019       C  0.69610526  0.13055942  0.55228146    -0.17790
C1020       C  0.66893203  0.10583602  0.52450783     0.10600
S1021       S  0.63680693  0.11854810  0.67392691    -0.32760
S1022       S  0.68439556  0.09913982  0.46737814    -0.32760
H1023       H  0.64223858  0.09485554  0.45074893     0.28610
H1024       H  0.67724304  0.10213384  0.68748724     0.28600
H1025       H  0.59534125  0.07856383  0.60400584     0.19190
H1026       H  0.72585872  0.14352416  0.53871773     0.19200
C1027       C  0.68965993  0.85496376  0.41561786    -0.06630
C1028       C  0.66617981  0.88886517  0.39662235    -0.17760
C1029       C  0.64391518  0.91895085  0.42261760     0.10570
C1030       C  0.63862090  0.91230316  0.46858428    -0.06560
C1031       C  0.65932995  0.87626479  0.48774590    -0.17790
C1032       C  0.68605822  0.84839781  0.46184319     0.10600
S1033       S  0.62656265  0.96795182  0.39557380    -0.32760
S1034       S  0.71475714  0.80513202  0.48905903    -0.32760
H1035       H  0.72360053  0.78067688  0.45052338     0.28610
H1036       H  0.64805154  0.99471344  0.42624829     0.28600
H1037       H  0.67027646  0.89562132  0.36170694     0.19190
H1038       H  0.65453162  0.86966835  0.52252346     0.19200
loop_ 
_geom_bond_atom_site_label_1 
_geom_bond_atom_site_label_2 
_geom_bond_distance 
_geom_bond_site_symmetry_2 
_ccdc_geom_bond_type 
O1            C9   1.228       .  A
O1          Co21   1.934       .  S
O2           C10   1.217       .  A
O2          Co22   1.922       .  S
O3           C11   1.226       .  A
O3          Co23   1.929       .  S
O4           C12   1.227       .  A
O4          Co24   1.931   1_565  S
O5           C11   1.270       .  A
O5          Co22   2.093       .  S
O6           C12   1.267       .  A
O6          Co21   2.071       .  S
O7           C10   1.268       .  A
O7          Co24   2.107   1_565  S
O8            C9   1.268       .  A
O8          Co23   2.099       .  S
C9         C1030   1.484       .  S
C10         C979   1.471       .  S
C11         C958   1.468       .  S
C12        C1006   1.458       .  S
O13          C26   1.236       .  A
O13         Co21   1.914   1_545  S
O14          C27   1.228       .  A
O14         Co22   1.926   1_545  S
O15          C28   1.220       .  A
O15         Co23   1.905   1_545  S
O16          C29   1.218       .  A
O16         Co24   1.919       .  S
O17          C29   1.265       .  A
O17         Co22   2.108   1_545  S
O18          C28   1.270       .  A
O18         Co21   2.109   1_545  S
O19          C26   1.274       .  A
O19         Co24   2.081       .  S
O20          C27   1.272       .  A
O20         Co23   2.087   1_545  S
Co21         O25   2.113   1_565  S
Co22         O25   2.107   1_565  S
Co23         O25   2.055   1_565  S
Co24         O25   2.058       .  S
C26         C994   1.486       .  S
C27         C943   1.463       .  S
C28        C1015   1.489       .  S
C29         C970   1.483       .  S
O30          C38   1.237       .  A
O30         Co50   1.943   1_655  S
O31          C39   1.214       .  A
O31         Co51   1.951       .  S
O32          C40   1.224       .  A
O32         Co52   1.933   1_655  S
O33          C41   1.275       .  A
O33         Co53   1.850   1_655  S
O34          C40   1.261       .  A
O34         Co51   2.075       .  S
O35          C41   1.322       .  A
O35         Co50   2.214   1_655  S
O36          C39   1.259       .  A
O36         Co53   2.090   1_655  S
O37          C38   1.265       .  A
O37         Co52   2.054   1_655  S
C38         C919   1.466       .  S
C39         C910   1.472       .  S
C40         C859   1.479       .  S
C41         C883   1.487       .  S
O42          C55   1.203       .  A
O42         Co50   1.989       .  S
O43          C56   1.239       .  A
O43         Co51   1.899   1_455  S
O44          C57   1.234       .  A
O44         Co52   1.915       .  S
O45          C58   1.243       .  A
O45         Co53   1.914       .  S
O46          C58   1.284       .  A
O46         Co51   2.095   1_455  S
O47          C57   1.280       .  A
O47         Co50   2.101       .  S
O48          C55   1.228       .  A
O48         Co53   2.092       .  S
O49          C56   1.273       .  A
O49         Co52   2.053       .  S
Co50         O54   1.998       .  S
Co51         O54   2.047   1_655  S
Co52         O54   2.058       .  S
Co53         O54   2.108       .  S
C55         C871   1.466       .  S
C56         C847   1.452       .  S
C57         C931   1.467       .  S
C58         C895   1.480       .  S
O59          C67   1.220       .  A
O59         Co79   1.919       .  S
O60          C68   1.227       .  A
O60         Co80   1.926       .  S
O61          C69   1.226       .  A
O61         Co81   1.944       .  S
O62          C70   1.237       .  A
O62         Co82   1.925       .  S
O63          C69   1.264       .  A
O63         Co80   2.082       .  S
O64          C70   1.269       .  A
O64         Co79   2.063       .  S
O65          C68   1.276       .  A
O65         Co82   2.102       .  S
O66          C67   1.271       .  A
O66         Co81   2.114       .  S
C67         C835   1.495       .  S
C68         C787   1.476       .  S
C69         C811   1.472       .  S
C70         C763   1.480       .  S
O71          C84   1.235       .  A
O71         Co79   1.915   1_554  S
O72          C85   1.222       .  A
O72         Co80   1.925   1_554  S
O73          C86   1.225       .  A
O73         Co81   1.930   1_554  S
O74          C87   1.225       .  A
O74         Co82   1.939   1_554  S
O75          C87   1.262       .  A
O75         Co80   2.077   1_554  S
O76          C86   1.269       .  A
O76         Co79   2.096   1_554  S
O77          C84   1.273       .  A
O77         Co82   2.077   1_554  S
O78          C85   1.275       .  A
O78         Co81   2.123   1_554  S
Co79         O83   2.079       .  S
Co80         O83   2.088       .  S
Co81         O83   2.107       .  S
Co82         O83   2.098       .  S
C84         C751   1.498       .  S
C85         C799   1.485       .  S
C86         C823   1.476       .  S
C87         C778   1.460       .  S
C88         C742   1.472       .  S
C88          C89   1.382       .  A
C88          C93   1.407       .  A
C89          C90   1.380       .  A
C89          H94   1.088       .  S
C90         C955   1.471       .  S
C90          C91   1.406       .  A
C91          C92   1.420       .  A
C91          H95   1.083       .  S
C92          C99   1.492       .  S
C92          C93   1.420       .  A
C93          H96   1.083       .  S
C97         C108   1.494       .  S
C97          C98   1.408       .  A
C97         C102   1.405       .  A
C98          C99   1.410       .  A
C98         H103   1.084       .  S
C99         C100   1.410       .  A
C100        C101   1.409       .  A
C100        H104   1.084       .  S
C101        C119   1.492       .  S
C101        C102   1.411       .  A
C102        H105   1.084       .  S
C106        C922   1.490       .  S
C106        C107   1.412       .  A
C106        C111   1.389       .  A
C107        C108   1.423       .  A
C107        H112   1.083       .  S
C108        C109   1.418       .  A
C109        C110   1.402       .  A
C109        H113   1.084       .  S
C110        C727   1.471       .  S
C110        C111   1.379       .  A
C111        H114   1.087       .  S
C115        C715   1.465       .  S
C115        C116   1.381       .  A
C115        C120   1.396       .  A
C116        C117   1.383       .  A
C116        H121   1.086       .  S
C117        C790   1.490       .  S
C117        C118   1.416       .  A
C118        C119   1.425       .  A
C118        H122   1.083       .  S
C119        C120   1.414       .  A
C120        H123   1.083       .  S
C124        C146   1.507       .  S
C124        C125   1.409       .  A
C124        C129   1.414       .  A
C125        C126   1.410       .  A
C125        H130   1.084       .  S
C126        C135   1.499       .  S
C126        C127   1.414       .  A
C127        C128   1.414       .  A
C127        H131   1.084       .  S
C128        C155   1.503       .  S
C128        C129   1.420       .  A
C129        H132   1.084       .  S
C133        C838   1.479       .  S
C133        C134   1.409       .  A
C133        C138   1.384       .  A
C134        C135   1.418       .  A
C134        H139   1.083       .  S
C135        C136   1.420       .  A
C136        C137   1.414       .  A
C136        H140   1.083       .  S
C137        C706   1.479       .  S
C137        C138   1.390       .  A
C138        H141   1.087       .  S
C142        C691   1.478       .  S
C142        C143   1.379       .  A
C142        C147   1.408       .  A
C143        C144   1.383       .  A
C143        H148   1.088       .  S
C144        C946   1.485       .  S
C144        C145   1.416       .  A
C145        C146   1.427       .  A
C145        H149   1.083       .  S
C146        C147   1.424       .  A
C147        H150   1.083       .  S
C151        C679   1.487       .  S
C151        C152   1.391       .  A
C151        C156   1.403       .  A
C152        C153   1.399       .  A
C152        H157   1.082       .  S
C153        C898   1.529       .  S
C153        C154   1.431       .  A
C154        C155   1.429       .  A
C154        H158   1.078       .  S
C155        C156   1.414       .  A
C156        H159   1.083       .  S
O160        C168   1.224       .  A
O160       Co180   1.925       .  S
O161        C169   1.226       .  A
O161       Co181   1.929       .  S
O162        C170   1.228       .  A
O162       Co182   1.914       .  S
O163        C171   1.234       .  A
O163       Co183   1.936       .  S
O164        C170   1.268   1_554  A
O164       Co181   2.077       .  S
O165        C171   1.272   1_556  A
O165       Co180   2.085       .  S
O166        C169   1.268   1_565  A
O166       Co183   2.106       .  S
O167        C168   1.266   1_545  A
O167       Co182   2.082       .  S
C168        C739   1.459       .  S
C169        C631   1.481       .  S
C170        C667   1.482       .  S
C171        C607   1.475       .  S
O172        C185   1.222       .  A
O172       Co180   1.937       .  S
O173        C186   1.238       .  A
O173       Co181   1.906       .  S
O174        C187   1.227       .  A
O174       Co182   1.938       .  S
O175        C188   1.216       .  A
O175       Co183   1.922       .  S
O176        C188   1.271   1_545  A
O176       Co181   2.116       .  S
O177        C187   1.267   1_565  A
O177       Co180   2.093       .  S
O178        C185   1.265   1_554  A
O178       Co183   2.086       .  S
O179        C186   1.269   1_556  A
O179       Co182   2.053       .  S
Co180       O184   2.072   1_566  S
Co181       O184   2.109       .  S
Co182       O184   2.071   1_556  S
Co183       O184   2.087   1_565  S
C185        C622   1.469       .  S
C186        C655   1.484       .  S
C187        C694   1.473       .  S
C188        C643   1.475       .  S
C189        C202   1.498       .  S
C189        C190   1.416       .  A
C189        C194   1.411       .  A
C190        C191   1.412       .  A
C190        H195   1.084       .  S
C191        C211   1.503       .  S
C191        C192   1.404       .  A
C192        C193   1.411       .  A
C192        H196   1.084       .  S
C193        C220   1.494       .  S
C193        C194   1.411       .  A
C194        H197   1.083       .  S
C198        C619   1.469       .  S
C198        C199   1.381       .  A
C198        C203   1.402       .  A
C199        C200   1.386       .  A
C199        H204   1.087       .  S
C200        C814   1.491       .  S
C200        C201   1.418       .  A
C201        C202   1.427       .  A
C201        H205   1.083       .  S
C202        C203   1.416       .  A
C203        H206   1.084       .  S
C207        C598   1.497       .  S
C207        C208   1.386       .  A
C207        C212   1.416       .  A
C208        C209   1.381       .  A
C208        H213   1.087       .  S
C209        C982   1.474       .  S
C209        C210   1.405       .  A
C210        C211   1.420       .  A
C210        H214   1.083       .  S
C211        C212   1.427       .  A
C212        H215   1.082       .  S
C216        C874   1.476       .  S
C216        C217   1.385       .  A
C216        C221   1.397       .  A
C217        C218   1.389       .  A
C217        H222   1.086       .  S
C218        C586   1.495       .  S
C218        C219   1.416       .  A
C219        C220   1.426       .  A
C219        H223   1.083       .  S
C220        C221   1.417       .  A
C221        H224   1.084       .  S
C225        C247   1.506       .  S
C225        C226   1.410       .  A
C225        C230   1.415       .  A
C226        C227   1.413       .  A
C226        H231   1.084       .  S
C227        C238   1.498       .  S
C227        C228   1.410       .  A
C228        C229   1.411       .  A
C228        H232   1.084       .  S
C229        C256   1.496       .  S
C229        C230   1.413       .  A
C230        H233   1.084       .  S
C234        C574   1.494       .  S
C234        C235   1.388       .  A
C234        C239   1.418       .  A
C235        C236   1.380       .  A
C235        H240   1.087       .  S
C236        C907   1.471       .  S
C236        C237   1.400       .  A
C237        C238   1.418       .  A
C237        H241   1.084       .  S
C238        C239   1.426       .  A
C239        H242   1.083       .  S
C243        C562   1.486       .  S
C243        C244   1.381       .  A
C243        C248   1.415       .  A
C244        C245   1.381       .  A
C244        H249   1.088       .  S
C245        C775   1.473       .  S
C245        C246   1.406       .  A
C246        C247   1.421       .  A
C246        H250   1.083       .  S
C247        C248   1.429       .  A
C248        H251   1.083       .  S
C252        C991   1.500       .  S
C252        C253   1.397       .  A
C252        C257   1.419       .  A
C253        C254   1.389       .  A
C253        H258   1.084       .  S
C254        C634   1.477       .  S
C254        C255   1.407       .  A
C255        C256   1.412       .  A
C255        H259   1.084       .  S
C256        C257   1.420       .  A
C257        H260   1.083       .  S
O261        C269   1.224       .  A
O261       Co281   1.940       .  S
O262        C270   1.220       .  A
O262       Co282   1.955       .  S
O263        C271   1.239   1_655  A
O263       Co283   1.940       .  S
O264        C272   1.225       .  A
O264       Co284   1.937       .  S
O265        C271   1.281       .  A
O265       Co282   2.087       .  S
O266        C272   1.262   1_655  A
O266       Co281   2.063       .  S
O267        C270   1.261   1_556  A
O267       Co284   2.084       .  S
O268        C269   1.265   1_554  A
O268       Co283   2.073       .  S
C269        C718   1.459       .  S
C270        C547   1.474       .  S
C271        C523   1.478   1_455  S
C272        C583   1.474       .  S
O273        C286   1.246       .  A
O273       Co281   1.905       .  S
O274        C287   1.222       .  A
O274       Co282   1.931       .  S
O275        C288   1.229       .  A
O275       Co283   1.924       .  S
O276        C289   1.241       .  A
O276       Co284   1.930       .  S
O277        C289   1.281   1_554  A
O277       Co282   2.100       .  S
O278        C288   1.276   1_556  A
O278       Co281   2.105       .  S
O279        C286   1.281   1_455  A
O279       Co284   2.076       .  S
O280        C287   1.264   1_655  A
O280       Co283   2.083       .  S
Co281       O285   2.081   1_655  S
Co282       O285   1.996   1_554  S
Co283       O285   2.120   1_654  S
Co284       O285   2.084       .  S
C286        C511   1.485       .  S
C287        C535   1.468       .  S
C288        C559   1.480       .  S
C289        C703   1.475       .  S
C290        C499   1.473       .  S
C290        C291   1.389       .  A
C290        C295   1.409       .  A
C291        C292   1.386       .  A
C291        H296   1.087       .  S
C292        C967   1.475       .  S
C292        C293   1.407       .  A
C293        C294   1.411       .  A
C293        H297   1.083       .  S
C294        C299   1.490       .  S
C294        C295   1.417       .  A
C295        H298   1.083       .  S
C299        C300   1.409       .  A
C299        C304   1.412       .  A
C300        C301   1.408       .  A
C300        H305   1.084       .  S
C301        C312   1.485       .  S
C301        C302   1.407       .  A
C302        C303   1.401       .  A
C302        H306   1.084       .  S
C303        C319   1.485       .  S
C303        C304   1.407       .  A
C304        H307   1.084       .  S
C308        C538   1.468       .  S
C308        C309   1.379       .  A
C308        C313   1.399       .  A
C309        C310   1.385       .  A
C309        H314   1.088       .  S
C310        C850   1.479       .  S
C310        C311   1.410       .  A
C311        C312   1.420       .  A
C311        H315   1.083       .  S
C312        C313   1.417       .  A
C313        H316   1.084       .  S
C317        C754   1.493       .  S
C317        C318   1.412       .  A
C317        C322   1.395       .  A
C318        C319   1.413       .  A
C318        H323   1.083       .  S
C319        C320   1.407       .  A
C320        C321   1.407       .  A
C320        H324   1.083       .  S
C321        C658   1.490       .  S
C321        C322   1.399       .  A
C322        H325   1.083       .  S
C326        C355   1.498       .  S
C326        C327   1.409       .  A
C326        C331   1.417       .  A
C327        C328   1.408       .  A
C327        H332   1.084       .  S
C328        C339   1.485       .  S
C328        C329   1.405       .  A
C329        C330   1.406       .  A
C329        H333   1.085       .  S
C330        C348   1.493       .  S
C330        C331   1.414       .  A
C331        H334   1.083       .  S
C335        C514   1.497       .  S
C335        C336   1.399       .  A
C335        C340   1.414       .  A
C336        C337   1.394       .  A
C336        H341   1.083       .  S
C337        C886   1.480       .  S
C337        C338   1.406       .  A
C338        C339   1.408       .  A
C338        H342   1.084       .  S
C339        C340   1.414       .  A
C340        H343   1.083       .  S
C344        C670   1.478       .  S
C344        C345   1.391       .  A
C344        C349   1.409       .  A
C345        C346   1.398       .  A
C345        H350   1.084       .  S
C346        C766   1.501       .  S
C346        C347   1.419       .  A
C347        C348   1.419       .  A
C347        H351   1.082       .  S
C348        C349   1.409       .  A
C349        H352   1.084       .  S
C353       C1018   1.477       .  S
C353        C354   1.411       .  A
C353        C358   1.382       .  A
C354        C355   1.416       .  A
C354        H359   1.084       .  S
C355        C356   1.421       .  A
C356        C357   1.412       .  A
C356        H360   1.083       .  S
C357        C487   1.474       .  S
C357        C358   1.383       .  A
C358        H361   1.088       .  S
C362        C373   1.504       .  S
C362        C363   1.411       .  A
C362        C367   1.415       .  A
C363        C364   1.415       .  A
C363        H368   1.084       .  S
C364        C384   1.510       .  S
C364        C365   1.414       .  A
C365        C366   1.420       .  A
C365        H369   1.084       .  S
C366        C393   1.509       .  S
C366        C367   1.417       .  A
C367        H370   1.083       .  S
C371       C1027   1.481       .  S
C371        C372   1.410       .  A
C371        C376   1.393       .  A
C372        C373   1.414       .  A
C372        H377   1.083       .  S
C373        C374   1.422       .  A
C374        C375   1.422       .  A
C374        H378   1.083       .  S
C375        C475   1.509       .  S
C375        C376   1.399       .  A
C376        H379   1.084       .  S
C380        C526   1.498       .  S
C380        C381   1.386       .  A
C380        C385   1.425       .  A
C381        C382   1.381       .  A
C381        H386   1.088       .  S
C382        C862   1.473       .  S
C382        C383   1.404       .  A
C383        C384   1.419       .  A
C383        H387   1.083       .  S
C384        C385   1.432       .  A
C385        H388   1.083       .  S
C389        C610   1.509       .  S
C389        C390   1.391       .  A
C389        C394   1.423       .  A
C390        C391   1.380       .  A
C390        H395   1.086       .  S
C391        C802   1.481       .  S
C391        C392   1.407       .  A
C392        C393   1.422       .  A
C392        H396   1.083       .  S
C393        C394   1.430       .  A
C394        H397   1.082       .  S
C398        C418   1.507       .  S
C398        C399   1.415       .  A
C398        C403   1.414       .  A
C399        C400   1.415       .  A
C399        H404   1.083       .  S
C400        C429   1.502       .  S
C400        C401   1.412       .  A
C401        C402   1.412       .  A
C401        H405   1.084       .  S
C402        C411   1.504       .  S
C402        C403   1.413       .  A
C403        H406   1.084       .  S
C407       C1003   1.479       .  S
C407        C408   1.380       .  A
C407        C412   1.409       .  A
C408        C409   1.378       .  A
C408        H413   1.088       .  S
C409        C646   1.477       .  S
C409        C410   1.410       .  A
C410        C411   1.426       .  A
C410        H414   1.083       .  S
C411        C412   1.425       .  A
C412        H415   1.083       .  S
C416        C934   1.481       .  S
C416        C417   1.412       .  A
C416        C421   1.384       .  A
C417        C418   1.424       .  A
C417        H422   1.083       .  S
C418        C419   1.423       .  A
C419        C420   1.412       .  A
C419        H423   1.083       .  S
C420        C466   1.487       .  S
C420        C421   1.385       .  A
C421        H424   1.087       .  S
C425        C826   1.481       .  S
C425        C426   1.385       .  A
C425        C430   1.412       .  A
C426        C427   1.386       .  A
C426        H431   1.088       .  S
C427        C550   1.480       .  S
C427        C428   1.410       .  A
C428        C429   1.421       .  A
C428        H432   1.083       .  S
C429        C430   1.423       .  A
C430        H433   1.083       .  S
O434        C442   1.220       .  A
O434       Co454   1.920       .  S
O435        C443   1.239       .  A
O435       Co455   1.923       .  S
O436        C444   1.232       .  A
O436       Co456   1.937       .  S
O437        C445   1.222       .  A
O437       Co457   1.931       .  S
O438        C444   1.270   1_545  A
O438       Co455   2.083       .  S
O439        C445   1.263   1_565  A
O439       Co454   2.089       .  S
O440        C443   1.273   1_655  A
O440       Co457   2.069       .  S
O441        C442   1.271   1_455  A
O441       Co456   2.115       .  S
C442        C730   1.472       .  S
C443        C682   1.489       .  S
C444        C595   1.478       .  S
C445        C490   1.468       .  S
O446        C459   1.236       .  A
O446       Co454   1.921       .  S
O447        C460   1.230       .  A
O447       Co455   1.936       .  S
O448        C461   1.218       .  A
O448       Co456   1.945       .  S
O449        C462   1.228       .  A
O449       Co457   1.934       .  S
O450        C462   1.264   1_455  A
O450       Co455   2.062       .  S
O451        C461   1.264   1_655  A
O451       Co454   2.107       .  S
O452        C459   1.275   1_545  A
O452       Co457   2.090       .  S
O453        C460   1.268   1_565  A
O453       Co456   2.074       .  S
Co454       O458   2.132   1_655  S
Co455       O458   2.116   1_545  S
Co456       O458   2.085       .  S
Co457       O458   2.062   1_645  S
C459        C478   1.485       .  S
C460        C502   1.468       .  S
C461        C463   1.480       .  S
C462        C571   1.470       .  S
C463        C464   1.404       .  A
C463        C468   1.415       .  A
C464        C465   1.399       .  A
C464        H473   1.078       .  S
C465        C466   1.414       .  A
C465        S469   1.810       .  S
C466        C467   1.402       .  A
C467        C468   1.405       .  A
C467        H474   1.084       .  S
C468        S470   1.788       .  S
S469        H472   1.407       .  S
S470        H471   1.407       .  S
C475        C476   1.401       .  A
C475        C480   1.430       .  A
C476        C477   1.404       .  A
C476        H485   1.083       .  S
C477        C478   1.417       .  A
C477        S481   1.797       .  S
C478        C479   1.395       .  A
C479        C480   1.403       .  A
C479        H486   1.084   1_565  S
C480        S482   1.801       .  S
S481        H484   1.408       .  S
S482        H483   1.407       .  S
C487        C488   1.411       .  A
C487        C492   1.409       .  A
C488        C489   1.410       .  A
C488        H497   1.084       .  S
C489        C490   1.411       .  A
C489        S493   1.803   1_545  S
C490        C491   1.406       .  A
C491        C492   1.391       .  A
C491        H498   1.086       .  S
C492        S494   1.804       .  S
S493        H496   1.405       .  S
S494        H495   1.406       .  S
C499        C500   1.409       .  A
C499        C504   1.410       .  A
C500        C501   1.411       .  A
C500        H509   1.084       .  S
C501        C502   1.411       .  A
C501        S505   1.802   1_545  S
C502        C503   1.403       .  A
C503        C504   1.385       .  A
C503        H510   1.085       .  S
C504        S506   1.808       .  S
S505        H508   1.406       .  S
S506        H507   1.406       .  S
C511        C512   1.397       .  A
C511        C516   1.416       .  A
C512        C513   1.402       .  A
C512        H521   1.078   1_655  S
C513        C514   1.426       .  A
C513        S517   1.807       .  S
C514        C515   1.400       .  A
C515        C516   1.400       .  A
C515        H522   1.083       .  S
C516        S518   1.799       .  S
S517        H520   1.407       .  S
S518        H519   1.408       .  S
C523        C524   1.403       .  A
C523        C528   1.421       .  A
C524        C525   1.399       .  A
C524        H533   1.085       .  S
C525        C526   1.421       .  A
C525        S529   1.808       .  S
C526        C527   1.406       .  A
C527        C528   1.415       .  A
C527        H534   1.083       .  S
C528        S530   1.803   1_655  S
S529        H532   1.407       .  S
S530        H531   1.407       .  S
C535        C536   1.407       .  A
C535        C540   1.409       .  A
C536        C537   1.387       .  A
C536        H545   1.084       .  S
C537        C538   1.405       .  A
C537        S541   1.805       .  S
C538        C539   1.412       .  A
C539        C540   1.409       .  A
C539        H546   1.084       .  S
C540        S542   1.803   1_455  S
S541        H544   1.407       .  S
S542        H543   1.405       .  S
C547        C548   1.403       .  A
C547        C552   1.413       .  A
C548        C549   1.389       .  A
C548        H557   1.080       .  S
C549        C550   1.411       .  A
C549        S553   1.808       .  S
C550        C551   1.409       .  A
C551        C552   1.412       .  A
C551        H558   1.084       .  S
C552        S554   1.802   1_554  S
S553        H556   1.406       .  S
S554        H555   1.406       .  S
C559        C560   1.409       .  A
C559        C564   1.411       .  A
C560        C561   1.409       .  A
C560        H569   1.078       .  S
C561        C562   1.413       .  A
C561        S565   1.802       .  S
C562        C563   1.407       .  A
C563        C564   1.397       .  A
C563        H570   1.085       .  S
C564        S566   1.796       .  S
S565        H568   1.405       .  S
S566        H567   1.407       .  S
C571        C572   1.413       .  A
C571        C576   1.403       .  A
C572        C573   1.409       .  A
C572        H581   1.084       .  S
C573        C574   1.413       .  A
C573        S577   1.800       .  S
C574        C575   1.411       .  A
C575        C576   1.390       .  A
C575        H582   1.085       .  S
C576        S578   1.797       .  S
S577        H580   1.406       .  S
S578        H579   1.407   1_655  S
C583        C584   1.414       .  A
C583        C588   1.404       .  A
C584        C585   1.415       .  A
C584        H593   1.083       .  S
C585        C586   1.411       .  A
C585        S589   1.803       .  S
C586        C587   1.409       .  A
C587        C588   1.389       .  A
C587        H594   1.085       .  S
C588        S590   1.793       .  S
S589        H592   1.407       .  S
S590        H591   1.407       .  S
C595        C596   1.409       .  A
C595        C600   1.407       .  A
C596        C597   1.406       .  A
C596        H605   1.085       .  S
C597        C598   1.413       .  A
C597        S601   1.800       .  S
C598        C599   1.411       .  A
C599        C600   1.392       .  A
C599        H606   1.086       .  S
C600        S602   1.799       .  S
S601        H604   1.406       .  S
S602        H603   1.406       .  S
C607        C608   1.414       .  A
C607        C612   1.403       .  A
C608        C609   1.412       .  A
C608        H617   1.084       .  S
C609        C610   1.417       .  A
C609        S613   1.799       .  S
C610        C611   1.415       .  A
C611        C612   1.390       .  A
C611        H618   1.084       .  S
C612        S614   1.801       .  S
S613        H616   1.406       .  S
S614        H615   1.407   1_554  S
C619        C620   1.412       .  A
C619        C624   1.404       .  A
C620        C621   1.409       .  A
C620        H629   1.084       .  S
C621        C622   1.408       .  A
C621        S625   1.802   1_556  S
C622        C623   1.408       .  A
C623        C624   1.388       .  A
C623        H630   1.085       .  S
C624        S626   1.804       .  S
S625        H628   1.405       .  S
S626        H627   1.406       .  S
C631        C632   1.408       .  A
C631        C636   1.411       .  A
C632        C633   1.384       .  A
C632        H641   1.084       .  S
C633        C634   1.407       .  A
C633        S637   1.805       .  S
C634        C635   1.414       .  A
C635        C636   1.414       .  A
C635        H642   1.084       .  S
C636        S638   1.803   1_545  S
S637        H640   1.405       .  S
S638        H639   1.405       .  S
C643        C644   1.405       .  A
C643        C648   1.420       .  A
C644        C645   1.413       .  A
C644        H653   1.083   1_565  S
C645        C646   1.415       .  A
C645        S649   1.804       .  S
C646        C647   1.398       .  A
C647        C648   1.398       .  A
C647        H654   1.084       .  S
C648        S650   1.806       .  S
S649        H652   1.407   1_565  S
S650        H651   1.406       .  S
C655        C656   1.412       .  A
C655        C660   1.406       .  A
C656        C657   1.392       .  A
C656        H665   1.085       .  S
C657        C658   1.412       .  A
C657        S661   1.804       .  S
C658        C659   1.416       .  A
C659        C660   1.402       .  A
C659        H666   1.084       .  S
C660        S662   1.797   1_554  S
S661        H664   1.408       .  S
S662        H663   1.408       .  S
C667        C668   1.403       .  A
C667        C672   1.421       .  A
C668        C669   1.411       .  A
C668        H677   1.084   1_556  S
C669        C670   1.419       .  A
C669        S673   1.801   1_556  S
C670        C671   1.395       .  A
C671        C672   1.388       .  A
C671        H678   1.084       .  S
C672        S674   1.813       .  S
S673        H676   1.407   1_554  S
S674        H675   1.407       .  S
C679        C680   1.395       .  A
C679        C684   1.421       .  A
C680        C681   1.400       .  A
C680        H689   1.083       .  S
C681        C682   1.419       .  A
C681        S685   1.795       .  S
C682        C683   1.397       .  A
C683        C684   1.406       .  A
C683        H690   1.080   1_455  S
C684        S686   1.806       .  S
S685        H688   1.408       .  S
S686        H687   1.407   1_455  S
C691        C692   1.411       .  A
C691        C696   1.410       .  A
C692        C693   1.411       .  A
C692        H701   1.084       .  S
C693        C694   1.411       .  A
C693        S697   1.802   1_545  S
C694        C695   1.406       .  A
C695        C696   1.392       .  A
C695        H702   1.084       .  S
C696        S698   1.805       .  S
S697        H700   1.405       .  S
S698        H699   1.407       .  S
C703        C704   1.408       .  A
C703        C708   1.417       .  A
C704        C705   1.414       .  A
C704        H713   1.084   1_556  S
C705        C706   1.416       .  A
C705        S709   1.801       .  S
C706        C707   1.397       .  A
C707        C708   1.388       .  A
C707        H714   1.086       .  S
C708        S710   1.795       .  S
S709        H712   1.405       .  S
S710        H711   1.408       .  S
C715        C716   1.408       .  A
C715        C720   1.406       .  A
C716        C717   1.407       .  A
C716        H725   1.084       .  S
C717        C718   1.409       .  A
C717        S721   1.802   1_556  S
C718        C719   1.406       .  A
C719        C720   1.383       .  A
C719        H726   1.084       .  S
C720        S722   1.807       .  S
S721        H724   1.406       .  S
S722        H723   1.407       .  S
C727        C728   1.394       .  A
C727        C732   1.419       .  A
C728        C729   1.392       .  A
C728        H737   1.084       .  S
C729        C730   1.420       .  A
C729        S733   1.809       .  S
C730        C731   1.401       .  A
C731        C732   1.408       .  A
C731        H738   1.083   1_655  S
C732        S734   1.801       .  S
S733        H736   1.407       .  S
S734        H735   1.406       .  S
C739        C740   1.402       .  A
C739        C744   1.414       .  A
C740        C741   1.389       .  A
C740        H749   1.085       .  S
C741        C742   1.412       .  A
C741        S745   1.806       .  S
C742        C743   1.405       .  A
C743        C744   1.407       .  A
C743        H750   1.084       .  S
C744        S746   1.802   1_565  S
S745        H748   1.407       .  S
S746        H747   1.403       .  S
C751        C752   1.415       .  A
C751        C756   1.410       .  A
C752        C753   1.393       .  A
C752        H761   1.084       .  S
C753        C754   1.410       .  A
C753        S757   1.805       .  S
C754        C755   1.417       .  A
C755        C756   1.408       .  A
C755        H762   1.084       .  S
C756        S758   1.800       .  S
S757        H760   1.408       .  S
S758        H759   1.408       .  S
C763        C764   1.394       .  A
C763        C768   1.417       .  A
C764        C765   1.402       .  A
C764        H773   1.084       .  S
C765        C766   1.429       .  A
C765        S769   1.801       .  S
C766        C767   1.398       .  A
C767        C768   1.400       .  A
C767        H774   1.083       .  S
C768        S770   1.796       .  S
S769        H772   1.407       .  S
S770        H771   1.407       .  S
C775        C776   1.406       .  A
C775        C780   1.413       .  A
C776        C777   1.406       .  A
C776        H785   1.084       .  S
C777        C778   1.413       .  A
C777        S781   1.803       .  S
C778        C779   1.401       .  A
C779        C780   1.391       .  A
C779        H786   1.084       .  S
C780        S782   1.805       .  S
S781        H784   1.407       .  S
S782        H783   1.407       .  S
C787        C788   1.400       .  A
C787        C792   1.422       .  A
C788        C789   1.395       .  A
C788        H797   1.083       .  S
C789        C790   1.422       .  A
C789        S793   1.811       .  S
C790        C791   1.399       .  A
C791        C792   1.405       .  A
C791        H798   1.084       .  S
C792        S794   1.795       .  S
S793        H796   1.407       .  S
S794        H795   1.403       .  S
C799        C800   1.404       .  A
C799        C804   1.418       .  A
C800        C801   1.415       .  A
C800        H809   1.083       .  S
C801        C802   1.423       .  A
C801        S805   1.801       .  S
C802        C803   1.395       .  A
C803        C804   1.391       .  A
C803        H810   1.085       .  S
C804        S806   1.792       .  S
S805        H808   1.407       .  S
S806        H807   1.407   1_554  S
C811        C812   1.398       .  A
C811        C816   1.416       .  A
C812        C813   1.397       .  A
C812        H821   1.082       .  S
C813        C814   1.420       .  A
C813        S817   1.815       .  S
C814        C815   1.404       .  A
C815        C816   1.409       .  A
C815        H822   1.084       .  S
C816        S818   1.802       .  S
S817        H820   1.407   1_556  S
S818        H819   1.407       .  S
C823        C824   1.405       .  A
C823        C828   1.413       .  A
C824        C825   1.412       .  A
C824        H833   1.084       .  S
C825        C826   1.419       .  A
C825        S829   1.801       .  S
C826        C827   1.400       .  A
C827        C828   1.392       .  A
C827        H834   1.085       .  S
C828        S830   1.794   1_554  S
S829        H832   1.404       .  S
S830        H831   1.406       .  S
C835        C836   1.420       .  A
C835        C840   1.407       .  A
C836        C837   1.390       .  A
C836        H845   1.081       .  S
C837        C838   1.401       .  A
C837        S841   1.807       .  S
C838        C839   1.417       .  A
C839        C840   1.409       .  A
C839        H846   1.084       .  S
C840        S842   1.800       .  S
S841        H844   1.407       .  S
S842        H843   1.407       .  S
C847        C848   1.409       .  A
C847        C852   1.402       .  A
C848        C849   1.407       .  A
C848        H857   1.084       .  S
C849        C850   1.412       .  A
C849        S853   1.801       .  S
C850        C851   1.408       .  A
C851        C852   1.383       .  A
C851        H858   1.085       .  S
C852        S854   1.803       .  S
S853        H856   1.405       .  S
S854        H855   1.407       .  S
C859        C860   1.410       .  A
C859        C864   1.410       .  A
C860        C861   1.389       .  A
C860        H869   1.085       .  S
C861        C862   1.405       .  A
C861        S865   1.805       .  S
C862        C863   1.413       .  A
C863        C864   1.410       .  A
C863        H870   1.084       .  S
C864        S866   1.801       .  S
S865        H868   1.405       .  S
S866        H867   1.403       .  S
C871        C872   1.402       .  A
C871        C876   1.411       .  A
C872        C873   1.406       .  A
C872        H881   1.084       .  S
C873        C874   1.417       .  A
C873        S877   1.800       .  S
C874        C875   1.402       .  A
C875        C876   1.387       .  A
C875        H882   1.085       .  S
C876        S878   1.800       .  S
S877        H880   1.406       .  S
S878        H879   1.406       .  S
C883        C884   1.404       .  A
C883        C888   1.426       .  A
C884        C885   1.407       .  A
C884        H893   1.084       .  S
C885        C886   1.416       .  A
C885        S889   1.802       .  S
C886        C887   1.395       .  A
C887        C888   1.393       .  A
C887        H894   1.084       .  S
C888        S890   1.811       .  S
S889        H892   1.407       .  S
S890        H891   1.407       .  S
C895        C896   1.413       .  A
C895        C900   1.398       .  A
C896        C897   1.412       .  A
C896        H905   1.084       .  S
C897        C898   1.420       .  A
C897        S901   1.800       .  S
C898        C899   1.425       .  A
C899        C900   1.393       .  A
C899        H906   1.076       .  S
C900        S902   1.804       .  S
S901        H904   1.407       .  S
S902        H903   1.407       .  S
C907        C908   1.409       .  A
C907        C912   1.406       .  A
C908        C909   1.409       .  A
C908        H917   1.084       .  S
C909        C910   1.413       .  A
C909        S913   1.803       .  S
C910        C911   1.407       .  A
C911        C912   1.388       .  A
C911        H918   1.081       .  S
C912        S914   1.805       .  S
S913        H916   1.403       .  S
S914        H915   1.407       .  S
C919        C920   1.409       .  A
C919        C924   1.403       .  A
C920        C921   1.408       .  A
C920        H929   1.084       .  S
C921        C922   1.415       .  A
C921        S925   1.800       .  S
C922        C923   1.410       .  A
C923        C924   1.385       .  A
C923        H930   1.085       .  S
C924        S926   1.801   1_655  S
S925        H928   1.406       .  S
S926        H927   1.406       .  S
C931        C932   1.403       .  A
C931        C936   1.413       .  A
C932        C933   1.394       .  A
C932        H941   1.084       .  S
C933        C934   1.413       .  A
C933        S937   1.812       .  S
C934        C935   1.407       .  A
C935        C936   1.410       .  A
C935        H942   1.084       .  S
C936        S938   1.800       .  S
S937        H940   1.407       .  S
S938        H939   1.405       .  S
C943        C944   1.398       .  A
C943        C948   1.417       .  A
C944        C945   1.396       .  A
C944        H953   1.084       .  S
C945        C946   1.418       .  A
C945        S949   1.812       .  S
C946        C947   1.403       .  A
C947        C948   1.407       .  A
C947        H954   1.084       .  S
C948        S950   1.802       .  S
S949        H952   1.407   1_545  S
S950        H951   1.403       .  S
C955        C956   1.410       .  A
C955        C960   1.408       .  A
C956        C957   1.409       .  A
C956        H965   1.084       .  S
C957        C958   1.410       .  A
C957        S961   1.802       .  S
C958        C959   1.408       .  A
C959        C960   1.390       .  A
C959        H966   1.085       .  S
C960        S962   1.806       .  S
S961        H964   1.406       .  S
S962        H963   1.407       .  S
C967        C968   1.416       .  A
C967        C972   1.402       .  A
C968        C969   1.405       .  A
C968        H977   1.084       .  S
C969        C970   1.404       .  A
C969        S973   1.801       .  S
C970        C971   1.417       .  A
C971        C972   1.385       .  A
C971        H978   1.082       .  S
C972        S974   1.806       .  S
S973        H976   1.408       .  S
S974        H975   1.407       .  S
C979        C980   1.403       .  A
C979        C984   1.416       .  A
C980        C981   1.409       .  A
C980        H989   1.084       .  S
C981        C982   1.417       .  A
C981        S985   1.800       .  S
C982        C983   1.398       .  A
C983        C984   1.391       .  A
C983        H990   1.086       .  S
C984        S986   1.793       .  S
S985        H988   1.406       .  S
S986        H987   1.406   1_565  S
C991        C992   1.399       .  A
C991        C996   1.427       .  A
C992        C993   1.399       .  A
C992       H1001   1.083       .  S
C993        C994   1.422       .  A
C993        S997   1.806       .  S
C994        C995   1.397       .  A
C995        C996   1.407       .  A
C995       H1002   1.083       .  S
C996        S998   1.810       .  S
S997       H1000   1.408       .  S
S998        H999   1.407       .  S
C1003      C1004   1.403       .  A
C1003      C1008   1.416       .  A
C1004      C1005   1.407       .  A
C1004      H1013   1.084       .  S
C1005      C1006   1.415       .  A
C1005      S1009   1.803       .  S
C1006      C1007   1.399       .  A
C1007      C1008   1.392       .  A
C1007      H1014   1.084       .  S
C1008      S1010   1.813       .  S
S1009      H1012   1.407       .  S
S1010      H1011   1.407       .  S
C1015      C1016   1.419       .  A
C1015      C1020   1.408       .  A
C1016      C1017   1.384       .  A
C1016      H1025   1.082       .  S
C1017      C1018   1.399       .  A
C1017      S1021   1.806       .  S
C1018      C1019   1.419       .  A
C1019      C1020   1.409       .  A
C1019      H1026   1.084       .  S
C1020      S1022   1.802       .  S
S1021      H1024   1.407       .  S
S1022      H1023   1.403       .  S
C1027      C1028   1.395       .  A
C1027      C1032   1.419       .  A
C1028      C1029   1.387       .  A
C1028      H1037   1.086       .  S
C1029      C1030   1.417       .  A
C1029      S1033   1.800       .  S
C1030      C1031   1.406       .  A
C1031      C1032   1.416       .  A
C1031      H1038   1.083       .  S
C1032      S1034   1.801       .  S
S1033      H1036   1.404       .  S
S1034      H1035   1.407       .  S
