geometry optimzed in LAMMPS
_audit_creation_date              2020-11-30 
_audit_creation_method            'lammps2cif' 
_symmetry_space_group_name_H-M    'P1' 
_symmetry_Int_Tables_number       1 
_symmetry_cell_setting            triclinic 
loop_ 
_symmetry_equiv_pos_as_xyz 
  x,y,z 
_cell_length_a                    39.06762442 
_cell_length_b                    39.50499920363981 
_cell_length_c                    61.455920407402914 
_cell_angle_alpha                 90.6584686826019 
_cell_angle_beta                  90.05062894288629 
_cell_angle_gamma                 89.97710621241534 
loop_ 
_atom_site_label 
_atom_site_type_symbol 
_atom_site_fract_x 
_atom_site_fract_y 
_atom_site_fract_z 
_atom_site_charge 
N1          N  0.64063464  0.41193417  0.31683324    -0.02900
C2          C  0.61746683  0.38752979  0.32270246    -0.00400
C3          C  0.60971504  0.39020324  0.34452736    -0.23200
C4          C  0.63023579  0.41494483  0.35294361    -0.23500
C5          C  0.65036577  0.42662351  0.33608304    -0.00500
H6          H  0.59413089  0.37298561  0.35385512     0.13300
H7          H  0.63229673  0.42163268  0.37001991     0.13400
N8          N  0.63569800  0.43106251  0.29758750    -0.02900
C9          C  0.63745242  0.41677054  0.27723295    -0.00400
C10         C  0.60988380  0.42705131  0.26475541    -0.23200
C11         C  0.59241022  0.45066575  0.27664554    -0.23500
C12         C  0.60920042  0.45383240  0.29628595    -0.00500
H13         H  0.60470537  0.42032073  0.24795307     0.13300
H14         H  0.57211007  0.46673054  0.27065268     0.13400
N15         N  0.46498659  0.80826145  0.36401655    -0.26800
N16         N  0.47972203  0.83750247  0.36892416    -0.34600
C17         C  0.46737392  0.84885308  0.38806216     0.01600
C18         C  0.44399413  0.82546966  0.39547457     0.07600
C19         C  0.44291175  0.80023149  0.37981514    -0.05500
H20         H  0.47676503  0.87095729  0.39675179     0.08300
H21         H  0.42979381  0.77617774  0.38093380     0.09500
Cu22       Cu  0.51961377  0.85768581  0.35123724     0.44200
Cu23       Cu  0.48274882  0.77505419  0.34065844     0.42000
Cu24       Cu  0.56093613  0.79779426  0.31470914     0.43900
N25         N  0.55499613  0.87161512  0.32802781    -0.34200
N26         N  0.56846987  0.85023928  0.31368979    -0.28400
C27         C  0.58510611  0.86816599  0.29846341    -0.04500
C28         C  0.58252360  0.90226720  0.30379805     0.07700
C29         C  0.56334731  0.90345552  0.32265446     0.01500
H30         H  0.59676243  0.85732206  0.28402271     0.09200
H31         H  0.55346048  0.92590463  0.33070665     0.08200
N32         N  0.54660269  0.74754709  0.32021315    -0.35600
N33         N  0.51672031  0.73962359  0.32883387    -0.27800
C34         C  0.51514571  0.70602360  0.33182643    -0.03000
C35         C  0.54554949  0.69193134  0.32480771     0.05600
C36         C  0.56499061  0.71890476  0.31750743     0.03700
H37         H  0.49408639  0.69302510  0.33951243     0.08800
H38         H  0.59084771  0.71785147  0.31124966     0.07600
N39         N  0.51462011  0.03528721  0.21733766    -0.26800
N40         N  0.52836526  0.00547664  0.21277894    -0.34600
C41         C  0.51561877  0.99412577  0.19367644     0.01600
C42         C  0.49312168  0.01833923  0.18607600     0.07600
C43         C  0.49302326  0.04387660  0.20146023    -0.05500
H44         H  0.52284938  0.97063464  0.18570006     0.08300
H45         H  0.47938512  0.06770061  0.20070564     0.09500
Cu46       Cu  0.56352382  0.98311326  0.23330392     0.44200
Cu47       Cu  0.52869515  0.06599558  0.24276759     0.42000
Cu48       Cu  0.59090043  0.03776454  0.27953950     0.43900
N49         N  0.58476014  0.96548597  0.26186878    -0.34200
N50         N  0.59225868  0.98467749  0.27903694    -0.28400
C51         C  0.59561054  0.96454193  0.29645835    -0.04500
C52         C  0.59046946  0.93126507  0.28986031     0.07700
C53         C  0.58399352  0.93285308  0.26782539     0.01500
H54         H  0.59863170  0.97368470  0.31300843     0.09200
H55         H  0.57487719  0.91237020  0.25752381     0.08200
N56         N  0.57860323  0.08910220  0.27642246    -0.35600
N57         N  0.55419213  0.09876339  0.26298622    -0.27800
C58         C  0.55141056  0.13259893  0.26345792    -0.03000
C59         C  0.57522619  0.14513035  0.27797156     0.05600
C60         C  0.59213140  0.11695342  0.28600178     0.03700
H61         H  0.53393887  0.14704151  0.25353072     0.08800
H62         H  0.61299405  0.11680908  0.29758317     0.07600
N63         N  0.29647646  0.80558548  0.54862084    -0.02900
C64         C  0.26105490  0.81014437  0.54765478    -0.00400
C65         C  0.25152151  0.82389166  0.52796592    -0.23200
C66         C  0.28005274  0.82960388  0.51651651    -0.23500
C67         C  0.30684998  0.81758779  0.52868070    -0.00500
H68         H  0.22577869  0.82745791  0.52184736     0.13300
H69         H  0.28098388  0.83818312  0.49984029     0.13400
N70         N  0.31816654  0.80043289  0.56750980    -0.02900
C71         C  0.30815210  0.80278459  0.58906549    -0.00400
C72         C  0.33551406  0.80694289  0.60289823    -0.23200
C73         C  0.36386640  0.80550561  0.59061436    -0.23500
C74         C  0.35384790  0.80235876  0.56911379    -0.00500
H75         H  0.33489192  0.80746078  0.62052453     0.13300
H76         H  0.38974388  0.80503265  0.59694018     0.13400
N77         N  0.68845121  0.65114111  0.45052901    -0.26800
N78         N  0.71969756  0.64153809  0.45584981    -0.34600
C79         C  0.73106046  0.61891491  0.44099788     0.01600
C80         C  0.70580133  0.61420071  0.42541915     0.07600
C81         C  0.67932801  0.63542207  0.43189067    -0.05500
H82         H  0.75500995  0.60529065  0.44221322     0.08300
H83         H  0.65434659  0.63749334  0.42442651     0.09500
Cu84       Cu  0.74305025  0.65693297  0.48448829     0.44200
Cu85       Cu  0.65736775  0.67941996  0.47129979     0.42000
Cu86       Cu  0.68806156  0.69554300  0.52638583     0.43900
N87         N  0.75972765  0.67145138  0.51513496    -0.34200
N88         N  0.73980976  0.68334952  0.53087988    -0.28400
C89         C  0.75876083  0.68686806  0.54913185    -0.04500
C90         C  0.79212641  0.67746648  0.54435690     0.07700
C91         C  0.79179408  0.66800327  0.52270539     0.01500
H92         H  0.74908875  0.69592786  0.56462459     0.09200
H93         H  0.81303790  0.65808569  0.51331742     0.08200
N94         N  0.63839170  0.70715947  0.51585457    -0.35600
N95         N  0.62761715  0.70139068  0.49572292    -0.27800
C96         C  0.59466443  0.71099814  0.49407055    -0.03000
C97         C  0.58397069  0.72358380  0.51404860     0.05600
C98         C  0.61242935  0.72080135  0.52747703     0.03700
H99         H  0.57943770  0.70868274  0.47940931     0.08800
H100        H  0.61407492  0.72811989  0.54447026     0.07600
N101        N  0.93045161  0.62906460  0.64682982    -0.26800
N102        N  0.89746542  0.62415238  0.64319380    -0.34600
C103        C  0.88499183  0.60327395  0.65847687     0.01600
C104        C  0.91143323  0.59502800  0.67248656     0.07600
C105        C  0.93979649  0.61180332  0.66460170    -0.05500
H106        H  0.85911834  0.59355416  0.65875781     0.08300
H107        H  0.96576577  0.60990127  0.67057398     0.09500
Cu108      Cu  0.87258263  0.64391493  0.61625528     0.44200
Cu109      Cu  0.96237939  0.65506384  0.62577057     0.42000
Cu110      Cu  0.92771589  0.68268389  0.57458964     0.43900
N111        N  0.85495431  0.66349949  0.58705124    -0.34200
N112        N  0.87492165  0.67558770  0.57156320    -0.28400
C113        C  0.85545553  0.68296002  0.55415851    -0.04500
C114        C  0.82169250  0.67590259  0.55912421     0.07700
C115        C  0.82226158  0.66370223  0.58008465     0.01500
H116        H  0.86517169  0.69269148  0.53898835     0.09200
H117        H  0.80075090  0.65415031  0.58922263     0.08200
N118        N  0.97881332  0.68999940  0.58351987    -0.35600
N119        N  0.99125706  0.67950704  0.60228902    -0.27800
C120        C  0.02426260  0.68884979  0.60390031    -0.03000
C121        C  0.03316940  0.70648076  0.58539975     0.05600
C122        C  0.00365896  0.70664923  0.57278349     0.03700
H123        H  0.04035522  0.68412391  0.61787911     0.08800
H124        H  0.00018026  0.71900622  0.55731618     0.07600
N125        N  0.98541338  0.39094269  0.78488581    -0.02900
C126        C  0.99180051  0.41171747  0.76756335    -0.00400
C127        C  0.01280585  0.39540170  0.75268124    -0.23200
C128        C  0.01982337  0.36424720  0.76055574    -0.23500
C129        C  0.00170307  0.36107932  0.77965195    -0.00500
H130        H  0.01981403  0.40405494  0.73664342     0.13300
H131        H  0.03247135  0.34408450  0.75157707     0.13400
N132        N  0.97194809  0.40106665  0.80570315    -0.02900
C133        C  0.96855112  0.43368935  0.81353308    -0.00400
C134        C  0.94790329  0.43425589  0.83177392    -0.23200
C135        C  0.93797460  0.40196337  0.83553361    -0.23500
C136        C  0.95377371  0.38167394  0.82013051    -0.00500
H137        H  0.94258796  0.45576235  0.84230670     0.13300
H138        H  0.92431973  0.39355956  0.84982060     0.13400
N139        N  0.13191749  0.75843034  0.74568045    -0.26800
N140        N  0.11352474  0.78474684  0.73953753    -0.34600
C141        C  0.12211809  0.79262817  0.71901151     0.01600
C142        C  0.14679078  0.76989318  0.71195267     0.07600
C143        C  0.15249395  0.74868109  0.72926459    -0.05500
H144        H  0.11231237  0.81416646  0.71023790     0.08300
H145        H  0.17102356  0.72836053  0.73012265     0.09500
Cu146      Cu  0.08041714  0.81012519  0.76050562     0.44200
Cu147      Cu  0.12744722  0.73646082  0.77583279     0.42000
Cu148      Cu  0.06320858  0.76863100  0.81213441     0.43900
N149        N  0.05745906  0.83368225  0.78711656    -0.34200
N150        N  0.05267329  0.81919950  0.80618281    -0.28400
C151        C  0.04200196  0.84279738  0.82062983    -0.04500
C152        C  0.03962780  0.87343228  0.81005608     0.07700
C153        C  0.04945627  0.86669533  0.78885167     0.01500
H154        H  0.03735247  0.83817790  0.83769066     0.09200
H155        H  0.05269019  0.88485482  0.77597582     0.08200
N156        N  0.07940664  0.71860428  0.81198283    -0.35600
N157        N  0.10506572  0.70784102  0.79974127    -0.27800
C158        C  0.10639333  0.67395051  0.80030708    -0.03000
C159        C  0.07980666  0.66259164  0.81309019     0.05600
C160        C  0.06333336  0.69160804  0.82041249     0.03700
H161        H  0.12226491  0.65858212  0.78967604     0.08800
H162        H  0.03926467  0.69281768  0.82907261     0.07600
N163        N  0.06124783  0.04968945  0.88752085    -0.26800
N164        N  0.06294794  0.01684602  0.89116467    -0.34600
C165        C  0.08360291  0.01161034  0.90832646     0.01600
C166        C  0.09577988  0.04266650  0.91567170     0.07600
C167        C  0.08096379  0.06622235  0.90209447    -0.05500
H168        H  0.09118381  0.98691228  0.91404635     0.08300
H169        H  0.08599513  0.09315048  0.90187512     0.09500
Cu170      Cu  0.04324183  0.98087844  0.86965672     0.44200
Cu171      Cu  0.03687720  0.06977770  0.86078611     0.42000
Cu172      Cu  0.01864123  0.01325452  0.81592309     0.43900
N173        N  0.03279938  0.95055050  0.84262234    -0.34200
N174        N  0.02560627  0.96234726  0.82306311    -0.28400
C175        C  0.02545769  0.93642861  0.80868875    -0.04500
C176        C  0.03266918  0.90695941  0.81970534     0.07700
C177        C  0.03696970  0.91677185  0.84119848     0.01500
H178        H  0.02166395  0.93906520  0.79135066     0.09200
H179        H  0.04495547  0.90094721  0.85452766     0.08200
N180        N  0.01123835  0.06532781  0.81448360    -0.35600
N181        N  0.01711864  0.08546279  0.83141085    -0.27800
C182        C  0.00943492  0.11739191  0.82612620    -0.03000
C183        C  0.99829808  0.11756480  0.80483574     0.05600
C184        C  0.99976739  0.08416583  0.79779826     0.03700
H185        H  0.01212768  0.13903537  0.83693988     0.08800
H186        H  0.99289750  0.07431641  0.78188718     0.07600
N187        N  0.30596614  0.04600697  0.05237458    -0.02900
C188        C  0.32510769  0.03045884  0.06839604    -0.00400
C189        C  0.30484827  0.01399790  0.08319530    -0.23200
C190        C  0.27237434  0.02054873  0.07780505    -0.23500
C191        C  0.27274928  0.03876317  0.05875858    -0.00500
H192        H  0.31304599  0.00223045  0.09817474     0.13300
H193        H  0.25034825  0.01398176  0.08757295     0.13400
N194        N  0.31817888  0.05819823  0.03158893    -0.02900
C195        C  0.35178667  0.06356710  0.02517498    -0.00400
C196        C  0.35421363  0.06882230  0.00310286    -0.23200
C197        C  0.32248764  0.06622380  0.99483681    -0.23500
C198        C  0.30060700  0.06073609  0.01201064    -0.00500
H199        H  0.37708681  0.07478069  0.99396083     0.13300
H200        H  0.31556486  0.06968578  0.97793290     0.13400
N201        N  0.68001371  0.20344657  0.14926402    -0.26800
N202        N  0.71078655  0.21498386  0.14452424    -0.34600
C203        C  0.72094833  0.23662475  0.16021049     0.01600
C204        C  0.69561079  0.23856752  0.17587877     0.07600
C205        C  0.67025737  0.21660749  0.16855476    -0.05500
H206        H  0.74410986  0.25158057  0.15949062     0.08300
H207        H  0.64545598  0.21245028  0.17584795     0.09500
Cu208      Cu  0.73643167  0.20332464  0.11618511     0.44200
Cu209      Cu  0.64976920  0.17800124  0.12666598     0.42000
Cu210      Cu  0.68663558  0.17066467  0.07186526     0.43900
N211        N  0.75741027  0.18871710  0.08684257    -0.34200
N212        N  0.73902657  0.17832818  0.06999903    -0.28400
C213        C  0.76016517  0.17150915  0.05323629    -0.04500
C214        C  0.79335789  0.17732380  0.06015239     0.07700
C215        C  0.79072362  0.18809912  0.08151255     0.01500
H216        H  0.75208037  0.16196841  0.03748490     0.09200
H217        H  0.81140805  0.19523719  0.09234072     0.08200
N218        N  0.63632851  0.15909724  0.07952835    -0.35600
N219        N  0.62313005  0.16133833  0.09932892    -0.27800
C220        C  0.59030995  0.15115941  0.09859204    -0.03000
C221        C  0.58258944  0.14195042  0.07737751     0.05600
C222        C  0.61231612  0.14721034  0.06574424     0.03700
H223        H  0.57341963  0.15013317  0.11252078     0.08800
H224        H  0.61639527  0.14216522  0.04859626     0.07600
N225        N  0.95041935  0.19562982  0.96641253    -0.26800
N226        N  0.91664949  0.19556636  0.96534212    -0.34600
C227        C  0.90699420  0.20766519  0.94590633     0.01600
C228        C  0.93623590  0.21526804  0.93425586     0.07600
C229        C  0.96326554  0.20739717  0.94772386    -0.05500
H230        H  0.88075157  0.21195709  0.94099200     0.08300
H231        H  0.99020557  0.21136992  0.94456871     0.09500
Cu232      Cu  0.88629157  0.18175587  0.99142330     0.44200
Cu233      Cu  0.97719113  0.18170290  0.99364926     0.42000
Cu234      Cu  0.93124752  0.15480123  0.04102988     0.43900
N235        N  0.86283856  0.17285925  0.02106451    -0.34200
N236        N  0.87926695  0.16481234  0.03913349    -0.28400
C237        C  0.85693836  0.16481924  0.05575506    -0.04500
C238        C  0.82496222  0.17269091  0.04767521     0.07700
C239        C  0.82950238  0.17746874  0.02566087     0.01500
H240        H  0.86356988  0.15968256  0.07249164     0.09200
H241        H  0.81035197  0.18528423  0.01402674     0.08200
N242        N  0.98353911  0.14858791  0.03728988    -0.35600
N243        N  0.00006627  0.15995176  0.02010578    -0.27800
C244        C  0.03293349  0.15060106  0.02122243    -0.03000
C245        C  0.03738182  0.13227155  0.03992565     0.05600
C246        C  0.00562985  0.13131448  0.04983342     0.03700
H247        H  0.05165174  0.15471447  0.00855627     0.08800
H248        H  0.99871397  0.11757686  0.06430768     0.07600
C249        C  0.38387021  0.06868343  0.03778331     0.01900
C250        C  0.38933050  0.09942395  0.04917922     0.04700
C251        C  0.42215965  0.10780093  0.05707162    -0.11400
C252        C  0.45104028  0.08898727  0.05011379     0.24000
C253        C  0.44612421  0.06021384  0.03672570    -0.11900
C254        C  0.41280012  0.04888068  0.03184808     0.05400
C255        C  0.48639035  0.10100369  0.05545239     0.27800
C256        C  0.49873375  0.13166170  0.04677428    -0.12600
C257        C  0.53057472  0.14477212  0.05359092     0.05900
C258        C  0.55014526  0.12744407  0.06920102    -0.08600
C259        C  0.53893885  0.09586375  0.07680638     0.06700
C260        C  0.50780003  0.08216185  0.06936482    -0.13000
Br261      Br  0.48487866  0.03892077  0.02258602    -0.05000
Br262      Br  0.35408583  0.13346501  0.04993166     0.00600
Br263      Br  0.54673816  0.18715566  0.04214234     0.01000
Br264      Br  0.49547465  0.03715487  0.07806562    -0.03400
Br265      Br  0.40729311  0.00840333  0.01418556     0.01100
Br266      Br  0.42749563  0.14665124  0.07612731    -0.02700
Br267      Br  0.47266382  0.15510709  0.02488395    -0.03500
Br268      Br  0.56656227  0.07086754  0.09720624     0.00400
C269        C  0.06814598  0.11265173  0.04509526     0.01900
C270        C  0.07785800  0.08588377  0.03114601     0.04700
C271        C  0.11069052  0.07182889  0.03277334    -0.11400
C272        C  0.13414967  0.08499458  0.04825671     0.24000
C273        C  0.12283638  0.10913256  0.06382562    -0.11900
C274        C  0.08989085  0.12315697  0.06208902     0.05400
C275        C  0.17024440  0.07319857  0.04843857     0.27800
C276        C  0.17751768  0.03922956  0.05298263    -0.12600
C277        C  0.21114539  0.02735578  0.05137081     0.05900
C278        C  0.23891912  0.05070088  0.05084068    -0.08600
C279        C  0.23141329  0.08550297  0.04913229     0.06700
C280        C  0.19757778  0.09604766  0.04518926    -0.13000
Br281      Br  0.15211610  0.12265228  0.08774830    -0.05000
Br282      Br  0.04609109  0.06874312  0.00954900     0.00600
Br283      Br  0.21819363  0.97879619  0.05211132     0.01000
Br284      Br  0.18897398  0.14208534  0.03647326    -0.03400
Br285      Br  0.07496793  0.15772466  0.08234959     0.01100
Br286      Br  0.12296163  0.03520843  0.01317264    -0.02700
Br287      Br  0.14233042  0.00986869  0.06438227    -0.03500
Br288      Br  0.26546022  0.11911058  0.05563746     0.00400
C289        C  0.26358403  0.06150952  0.00651520     0.01900
C290        C  0.24633767  0.03087859  0.00217093     0.04700
C291        C  0.21471113  0.03088279  0.99104394    -0.11400
C292        C  0.20333196  0.06047901  0.98031220     0.24000
C293        C  0.22219350  0.09065925  0.98308332    -0.11900
C294        C  0.25052543  0.09171128  0.99727517     0.05400
C295        C  0.17589791  0.05812919  0.96322763     0.27800
C296        C  0.18183753  0.03818095  0.94434077    -0.12600
C297        C  0.15582015  0.03347903  0.92874965     0.05900
C298        C  0.12354788  0.04886200  0.93171084    -0.08600
C299        C  0.11845476  0.07121778  0.94947536     0.06700
C300        C  0.14469369  0.07639016  0.96497635    -0.13000
Br301      Br  0.21374934  0.12883568  0.96436004    -0.05000
Br302      Br  0.26955301  0.98859057  0.00739366     0.00600
Br303      Br  0.16561274  0.00804902  0.90242635     0.01000
Br304      Br  0.13782200  0.11001376  0.98763038    -0.03400
Br305      Br  0.27525625  0.13390916  0.00066698     0.01100
Br306      Br  0.18951295  0.98900338  0.98828562    -0.02700
Br307      Br  0.22669062  0.01915761  0.93886215    -0.03500
Br308      Br  0.07519376  0.09445864  0.95279781     0.00400
C309        C  0.98743965  0.46518064  0.80747881     0.01900
C310        C  0.02371874  0.46632802  0.80692431     0.04700
C311        C  0.04086782  0.49779445  0.80653658    -0.11400
C312        C  0.02221694  0.52815986  0.80822763     0.24000
C313        C  0.98632226  0.52728298  0.80869258    -0.11900
C314        C  0.96898175  0.49621499  0.80728840     0.05400
C315        C  0.03984127  0.56142329  0.80949518     0.27800
C316        C  0.04910026  0.57550924  0.82984831    -0.12600
C317        C  0.06207809  0.60876271  0.83115362     0.05900
C318        C  0.06522451  0.62813529  0.81214994    -0.08600
C319        C  0.05473250  0.61437271  0.79193336     0.06700
C320        C  0.04333728  0.58077255  0.79057509    -0.13000
Br321      Br  0.96103734  0.56890981  0.81300975    -0.05000
Br322      Br  0.05086598  0.42576307  0.80808444     0.00600
Br323      Br  0.07488780  0.62803935  0.85893884     0.01000
Br324      Br  0.03198253  0.56137713  0.76275062    -0.03400
Br325      Br  0.91951184  0.49698253  0.80575828     0.01100
Br326      Br  0.09008980  0.49969803  0.80423974    -0.02700
Br327      Br  0.04305541  0.54943742  0.85588966    -0.03500
Br328      Br  0.05229942  0.64237412  0.76636113     0.00400
C329        C  0.95927624  0.34601671  0.82657301     0.01900
C330        C  0.93085237  0.32391825  0.82573253     0.04700
C331        C  0.92781006  0.29753307  0.84086769    -0.11400
C332        C  0.95482878  0.29063965  0.85533662     0.24000
C333        C  0.98495882  0.31003268  0.85446637    -0.11900
C334        C  0.98613988  0.33900214  0.84138372     0.05400
C335        C  0.94829421  0.27009161  0.87501060     0.27800
C336        C  0.93579245  0.28658346  0.89387874    -0.12600
C337        C  0.93139588  0.26847652  0.91319402     0.05900
C338        C  0.93862338  0.23358619  0.91361375    -0.08600
C339        C  0.95041001  0.21683704  0.89471755     0.06700
C340        C  0.95558027  0.23514906  0.87548327    -0.13000
Br341      Br  0.02195394  0.30045174  0.87436232    -0.05000
Br342      Br  0.89299063  0.33394783  0.80675650     0.00600
Br343      Br  0.91750331  0.29199554  0.93943749     0.01000
Br344      Br  0.97364487  0.21252026  0.85023131    -0.03400
Br345      Br  0.02010453  0.37294143  0.84816455     0.01100
Br346      Br  0.88415418  0.27563626  0.84501881    -0.02700
Br347      Br  0.92552022  0.33442537  0.89338269    -0.03500
Br348      Br  0.95936045  0.16877458  0.89529172     0.00400
C349        C  0.99114190  0.32615309  0.78499217     0.01900
C350        C  0.96489449  0.31060156  0.77243049     0.04700
C351        C  0.96145520  0.27508473  0.77184971    -0.11400
C352        C  0.98260580  0.25487252  0.78493183     0.24000
C353        C  0.00838911  0.27037542  0.79774634    -0.11900
C354        C  0.01413422  0.30540147  0.79644800     0.05400
C355        C  0.98044633  0.21723076  0.78389151     0.27800
C356        C  0.95417172  0.19996109  0.79486081    -0.12600
C357        C  0.95819371  0.16552560  0.79977698     0.05900
C358        C  0.98785273  0.14815772  0.79304452    -0.08600
C359        C  0.01084340  0.16378543  0.77868336     0.06700
C360        C  0.00714005  0.19843116  0.77409651    -0.13000
Br361      Br  0.03804551  0.24343205  0.81578421    -0.05000
Br362      Br  0.93736130  0.33716083  0.75291356     0.00600
Br363      Br  0.92422321  0.14241916  0.81688418     0.01000
Br364      Br  0.03959693  0.22079276  0.75549767    -0.03400
Br365      Br  0.05677043  0.32382706  0.80715865     0.01100
Br366      Br  0.93090096  0.25385631  0.75107029    -0.02700
Br367      Br  0.91347149  0.22340204  0.80394032    -0.03500
Br368      Br  0.04877098  0.13851357  0.76679288     0.00400
C369        C  0.91199033  0.56887574  0.68951499     0.01900
C370        C  0.91246075  0.53427954  0.68356020     0.04700
C371        C  0.92014115  0.50966238  0.69921963    -0.11400
C372        C  0.92710420  0.51953896  0.72088095     0.24000
C373        C  0.92379677  0.55375230  0.72717353    -0.11900
C374        C  0.91648257  0.57843565  0.71149908     0.05400
C375        C  0.94298340  0.49497841  0.73598067     0.27800
C376        C  0.92284937  0.47351808  0.74880643    -0.12600
C377        C  0.93834283  0.44719547  0.76069195     0.05900
C378        C  0.97454438  0.44398632  0.76113672    -0.08600
C379        C  0.99452377  0.46844219  0.75007857     0.06700
C380        C  0.97878767  0.49215182  0.73648992    -0.13000
Br381      Br  0.93101379  0.56674773  0.75709830    -0.05000
Br382      Br  0.90540405  0.52073640  0.65363678     0.00600
Br383      Br  0.90892772  0.41486343  0.77451978     0.01000
Br384      Br  0.00606557  0.51805069  0.71636827    -0.03400
Br385      Br  0.91363570  0.62548353  0.71999065     0.01100
Br386      Br  0.92377654  0.46259732  0.69077554    -0.02700
Br387      Br  0.87379886  0.47916237  0.74877979    -0.03500
Br388      Br  0.04396779  0.46878932  0.75226572     0.00400
C389        C  0.38267024  0.79589428  0.55325699     0.01900
C390        C  0.41196755  0.81752118  0.55437031     0.04700
C391        C  0.44428009  0.80636541  0.54688025    -0.11400
C392        C  0.44765688  0.77509210  0.53583125     0.24000
C393        C  0.41815215  0.75461402  0.53312242    -0.11900
C394        C  0.38679284  0.76381016  0.54315313     0.05400
C395        C  0.48273084  0.76190328  0.52988348     0.27800
C396        C  0.50292607  0.77756308  0.51368021    -0.12600
C397        C  0.53594419  0.76513378  0.50864653     0.05900
C398        C  0.54935440  0.73693440  0.51967106    -0.08600
C399        C  0.52964904  0.72166131  0.53608470     0.06700
C400        C  0.49699111  0.73455153  0.54152352    -0.13000
Br401      Br  0.42137376  0.71202084  0.51753517    -0.05000
Br402      Br  0.40978437  0.86114619  0.56909648     0.00600
Br403      Br  0.56368021  0.78807039  0.48735975     0.01000
Br404      Br  0.47284395  0.71596212  0.56606542    -0.03400
Br405      Br  0.35223730  0.72974150  0.54663560     0.01100
Br406      Br  0.48485456  0.83182268  0.55480868    -0.02700
Br407      Br  0.48671118  0.81725382  0.49892027    -0.03500
Br408      Br  0.54671422  0.68199567  0.55060208     0.00400
C409        C  0.16757800  0.77195599  0.69203099     0.01900
C410        C  0.16084511  0.75039281  0.67416842     0.04700
C411        C  0.18042014  0.75303813  0.65502144    -0.11400
C412        C  0.20743118  0.77683240  0.65386970     0.24000
C413        C  0.21556039  0.79661184  0.67251351    -0.11900
C414        C  0.19513030  0.79479045  0.69127762     0.05400
C415        C  0.22807152  0.78084721  0.63358746     0.27800
C416        C  0.25151030  0.75546997  0.62713407    -0.12600
C417        C  0.27413422  0.76111360  0.60970575     0.05900
C418        C  0.27571762  0.79326728  0.59972493    -0.08600
C419        C  0.25400547  0.81925188  0.60742304     0.06700
C420        C  0.22830552  0.81224601  0.62274882    -0.13000
Br421      Br  0.25583528  0.82500884  0.67294061    -0.05000
Br422      Br  0.12488840  0.71705764  0.67609875     0.00600
Br423      Br  0.30798305  0.72691748  0.60267485     0.01000
Br424      Br  0.19600783  0.84730692  0.63057544    -0.03400
Br425      Br  0.20532257  0.82306731  0.71629798     0.01100
Br426      Br  0.17032361  0.72332377  0.63081528    -0.02700
Br427      Br  0.25658472  0.71502291  0.64427823    -0.03500
Br428      Br  0.26423664  0.86570873  0.60051562     0.00400
C429        C  0.06614724  0.72427279  0.58137557     0.01900
C430        C  0.08558823  0.71725222  0.56251228     0.04700
C431        C  0.11742719  0.73335220  0.55929811    -0.11400
C432        C  0.13127744  0.75511065  0.57552361     0.24000
C433        C  0.11097755  0.76320852  0.59396749    -0.11900
C434        C  0.07850672  0.74822695  0.59668333     0.05400
C435        C  0.16641447  0.77004166  0.57258141     0.27800
C436        C  0.19567897  0.74891129  0.57125361    -0.12600
C437        C  0.22732983  0.76190331  0.56395897     0.05900
C438        C  0.23189913  0.79703265  0.56109267    -0.08600
C439        C  0.20290041  0.81857347  0.56429450     0.06700
C440        C  0.17028233  0.80488612  0.56857129    -0.13000
Br441      Br  0.12659478  0.79542730  0.61557668    -0.05000
Br442      Br  0.06954291  0.68433633  0.54142817     0.00600
Br443      Br  0.26174728  0.73067388  0.55398212     0.01000
Br444      Br  0.13021578  0.83331021  0.56549435    -0.03400
Br445      Br  0.05003005  0.76223383  0.62089624     0.01100
Br446      Br  0.14125191  0.72679576  0.53201762    -0.02700
Br447      Br  0.19190054  0.70116697  0.57722929    -0.03500
Br448      Br  0.20600202  0.86700358  0.55969918     0.00400
C449        C  0.47509029  0.01952854  0.16517323     0.01900
C450        C  0.44640779  0.99877745  0.16148695     0.04700
C451        C  0.42576011  0.00396035  0.14309147    -0.11400
C452        C  0.43364492  0.03019645  0.12843522     0.24000
C453        C  0.46156228  0.05191935  0.13285802    -0.11900
C454        C  0.48313380  0.04551366  0.15057227     0.05400
C455        C  0.41134862  0.03552085  0.10918019     0.27800
C456        C  0.41016025  0.01076773  0.09242317    -0.12600
C457        C  0.38349049  0.01123266  0.07705009     0.05900
C458        C  0.35956607  0.03808891  0.07694367    -0.08600
C459        C  0.36197659  0.06372708  0.09322801     0.06700
C460        C  0.38716361  0.06195396  0.10951995    -0.13000
Br461      Br  0.46815280  0.09304033  0.11682921    -0.05000
Br462      Br  0.43403576  0.96494855  0.18248838     0.00600
Br463      Br  0.37435622  0.97065927  0.06012428     0.01000
Br464      Br  0.38425466  0.09193955  0.13461535    -0.03400
Br465      Br  0.52387275  0.07254434  0.15494096     0.01100
Br466      Br  0.38469808  0.97724438  0.13922466    -0.02700
Br467      Br  0.44151425  0.97280301  0.09267213    -0.03500
Br468      Br  0.32542960  0.09620197  0.09696806     0.00400
C469        C  0.33845186  0.81125801  0.51636019     0.01900
C470        C  0.36103374  0.83863841  0.51341246     0.04700
C471        C  0.38512246  0.83783371  0.49648213    -0.11400
C472        C  0.38302365  0.81239987  0.48023022     0.24000
C473        C  0.35944038  0.78568783  0.48246472    -0.11900
C474        C  0.33800283  0.78452960  0.50077230     0.05400
C475        C  0.40055739  0.81704709  0.45907135     0.27800
C476        C  0.38888103  0.84241025  0.44478343    -0.12600
C477        C  0.40383763  0.84574687  0.42414736     0.05900
C478        C  0.42995568  0.82343428  0.41756277    -0.08600
C479        C  0.44172207  0.79816707  0.43174204     0.06700
C480        C  0.42679155  0.79472488  0.45234565    -0.13000
Br481      Br  0.35243481  0.75370245  0.45876671    -0.05000
Br482      Br  0.35343128  0.88051540  0.52920097     0.00600
Br483      Br  0.38740165  0.87974652  0.40438098     0.01000
Br484      Br  0.44089034  0.75782192  0.47049937    -0.03400
Br485      Br  0.30238526  0.75052987  0.50151994     0.01100
Br486      Br  0.41771796  0.87426531  0.49394845    -0.02700
Br487      Br  0.35063037  0.87107612  0.45269089    -0.03500
Br488      Br  0.47869556  0.76836195  0.42313240     0.00400
C489        C  0.60703745  0.48690200  0.30824176     0.01900
C490        C  0.58346340  0.49153894  0.32548836     0.04700
C491        C  0.57584212  0.52441494  0.33343298    -0.11400
C492        C  0.59059270  0.55295139  0.32364150     0.24000
C493        C  0.61463512  0.54856161  0.30689025    -0.11900
C494        C  0.62191343  0.51599778  0.29870712     0.05400
C495        C  0.57555852  0.58723514  0.32688346     0.27800
C496        C  0.54927901  0.59772539  0.31271256    -0.12600
C497        C  0.53908289  0.63185057  0.31235748     0.05900
C498        C  0.55537692  0.65582458  0.32598976    -0.08600
C499        C  0.58046904  0.64508313  0.34094506     0.06700
C500        C  0.59038486  0.61076672  0.34147194    -0.13000
Br501      Br  0.63439663  0.58805248  0.29334302    -0.05000
Br502      Br  0.55639193  0.45410204  0.33538379     0.00600
Br503      Br  0.50396379  0.64599247  0.29231423     0.01000
Br504      Br  0.62464711  0.59598367  0.36176661    -0.03400
Br505      Br  0.64634498  0.51304613  0.27148954     0.01100
Br506      Br  0.54262602  0.53097277  0.35628114    -0.02700
Br507      Br  0.52852162  0.56541815  0.29289258    -0.03500
Br508      Br  0.60096385  0.67729113  0.36085372     0.00400
C509        C  0.66759372  0.39933639  0.26685764     0.01900
C510        C  0.67522016  0.40569442  0.24469292     0.04700
C511        C  0.68813825  0.37958197  0.23136524    -0.11400
C512        C  0.69181275  0.34692618  0.23993643     0.24000
C513        C  0.69144594  0.34298103  0.26272300    -0.11900
C514        C  0.68254501  0.37062759  0.27615675     0.05400
C515        C  0.69259084  0.31742856  0.22478960     0.27800
C516        C  0.66326137  0.31037393  0.21208174    -0.12600
C517        C  0.66422386  0.28495520  0.19594312     0.05900
C518        C  0.69358889  0.26421900  0.19366135    -0.08600
C519        C  0.72237383  0.27037327  0.20714172     0.06700
C520        C  0.72251659  0.29807307  0.22175388    -0.13000
Br521      Br  0.70236141  0.30038391  0.27588891    -0.05000
Br522      Br  0.66829459  0.44982092  0.23234037     0.00600
Br523      Br  0.62630237  0.28193347  0.17576634     0.01000
Br524      Br  0.76457697  0.31128466  0.23601945    -0.03400
Br525      Br  0.70603407  0.37547918  0.30329974     0.01100
Br526      Br  0.69772964  0.38737405  0.20097934    -0.02700
Br527      Br  0.62148241  0.33612355  0.21650823    -0.03500
Br528      Br  0.76154271  0.24054058  0.20621079     0.00400
C529        C  0.58176581  0.18125738  0.28277715     0.01900
C530        C  0.57160160  0.19549992  0.30286611     0.04700
C531        C  0.57640930  0.23029750  0.30703344    -0.11400
C532        C  0.59247011  0.25080940  0.29140087     0.24000
C533        C  0.60275692  0.23640794  0.27139115    -0.11900
C534        C  0.59665117  0.20196248  0.26683450     0.05400
C535        C  0.60096945  0.28663962  0.29694191     0.27800
C536        C  0.57962408  0.31341585  0.29031846    -0.12600
C537        C  0.58548581  0.34669473  0.29814309     0.05900
C538        C  0.61369899  0.35373366  0.31185538    -0.08600
C539        C  0.63422420  0.32629873  0.31901675     0.06700
C540        C  0.62852902  0.29331315  0.31103346    -0.13000
Br541      Br  0.62658057  0.26341965  0.25062063    -0.05000
Br542      Br  0.55036157  0.16743625  0.32447694     0.00600
Br543      Br  0.55135946  0.38091696  0.29322772     0.01000
Br544      Br  0.65725917  0.25636656  0.32054872    -0.03400
Br545      Br  0.60938206  0.18305694  0.23886190     0.01100
Br546      Br  0.56156312  0.24989972  0.33435171    -0.02700
Br547      Br  0.54096562  0.30389992  0.27170536    -0.03500
Br548      Br  0.66655974  0.33171166  0.34260227     0.00400
C549        C  0.70482776  0.58746622  0.40823858     0.01900
C550        C  0.73210916  0.58395162  0.39325469     0.04700
C551        C  0.73253381  0.55673250  0.37823687    -0.11400
C552        C  0.70439340  0.53460993  0.37686173     0.24000
C553        C  0.67645415  0.53889082  0.39116443    -0.11900
C554        C  0.67731874  0.56422094  0.40739043     0.05400
C555        C  0.70521247  0.50413967  0.36259211     0.27800
C556        C  0.69840870  0.50568120  0.34007810    -0.12600
C557        C  0.68969530  0.47579341  0.32868433     0.05900
C558        C  0.68223039  0.44663193  0.34050483    -0.08600
C559        C  0.69834347  0.44328552  0.36099351     0.06700
C560        C  0.70981638  0.47229082  0.37212955    -0.13000
Br561      Br  0.63717869  0.50913631  0.38892358    -0.05000
Br562      Br  0.76873414  0.61663920  0.39282376     0.00600
Br563      Br  0.70520237  0.47001369  0.29934668     0.01000
Br564      Br  0.72928443  0.46903630  0.40088243    -0.03400
Br565      Br  0.64238741  0.56413837  0.42965746     0.01100
Br566      Br  0.77267297  0.54815442  0.36074178    -0.02700
Br567      Br  0.70159155  0.54768841  0.32483154    -0.03500
Br568      Br  0.70392068  0.39945720  0.37394838     0.00400
loop_ 
_geom_bond_atom_site_label_1 
_geom_bond_atom_site_label_2 
_geom_bond_distance 
_geom_bond_site_symmetry_2 
_ccdc_geom_bond_type 
N1            C5   1.365       .  A
N1            C2   1.374       .  A
N1            N8   1.424       .  S
C2            C3   1.378       .  A
C2          C538   1.493       .  S
C3            C4   1.362       .  A
C3            H6   1.083       .  S
C4            C5   1.385       .  A
C4            H7   1.082       .  S
C5          C558   1.498       .  S
N8           C12   1.374       .  A
N8            C9   1.368       .  A
C9           C10   1.385       .  A
C9          C509   1.503       .  S
C10          C11   1.362       .  A
C10          H13   1.082       .  S
C11          C12   1.378       .  A
C11          H14   1.083       .  S
C12         C489   1.494       .  S
N15          C19   1.340       .  A
N15          N16   1.322       .  A
N15         Cu23   2.054       .  S
N16          C17   1.344       .  A
N16         Cu22   2.066       .  S
C17          C18   1.381       .  A
C17          H20   1.082       .  S
C18          C19   1.378       .  A
C18         C478   1.468       .  S
C19          H21   1.083       .  S
Cu22         N25   2.066       .  S
Cu23         N33   2.056       .  S
Cu24         N26   2.094       .  S
Cu24         N32   2.094       .  S
N25          C29   1.345       .  A
N25          N26   1.323       .  A
N26          C27   1.348       .  A
C27          C28   1.386       .  A
C27          H30   1.082       .  S
C28          C29   1.381       .  A
C28          C52   1.472       .  S
C29          H31   1.082       .  S
N32          C36   1.349       .  A
N32          N33   1.322       .  A
N33          C34   1.344       .  A
C34          C35   1.379       .  A
C34          H37   1.082       .  S
C35          C36   1.388       .  A
C35         C498   1.480       .  S
C36          H38   1.082       .  S
N39          C43   1.336       .  A
N39          N40   1.321       .  A
N39         Cu47   2.043       .  S
N40          C41   1.347   1_545  A
N40         Cu46   2.069   1_545  S
C41          C42   1.384   1_565  A
C41          H44   1.082       .  S
C42          C43   1.375       .  A
C42         C449   1.466       .  S
C43          H45   1.083       .  S
Cu46         N49   2.069       .  S
Cu47         N57   2.043       .  S
Cu48         N50   2.098   1_545  S
Cu48         N56   2.095       .  S
N49          C53   1.345       .  A
N49          N50   1.325       .  A
N50          C51   1.347       .  A
C51          C52   1.386       .  A
C51          H54   1.082       .  S
C52          C53   1.380       .  A
C53          H55   1.082       .  S
N56          C60   1.350       .  A
N56          N57   1.320       .  A
N57          C58   1.341       .  A
C58          C59   1.377       .  A
C58          H61   1.082       .  S
C59          C60   1.389       .  A
C59         C529   1.476       .  S
C60          H62   1.082       .  S
N63          C67   1.380       .  A
N63          C64   1.397       .  A
N63          N70   1.453       .  S
C64          C65   1.383       .  A
C64         C438   1.503       .  S
C65          C66   1.339       .  A
C65          H68   1.083       .  S
C66          C67   1.374       .  A
C66          H69   1.084       .  S
C67         C469   1.469       .  S
N70          C74   1.399       .  A
N70          C71   1.384       .  A
C71          C72   1.374       .  A
C71         C418   1.478       .  S
C72          C73   1.342       .  A
C72          H75   1.083       .  S
C73          C74   1.382       .  A
C73          H76   1.083       .  S
C74         C389   1.510       .  S
N77          C81   1.345       .  A
N77          N78   1.320       .  A
N77         Cu85   2.079       .  S
N78          C79   1.346       .  A
N78         Cu84   2.067       .  S
C79          C80   1.385       .  A
C79          H82   1.082       .  S
C80          C81   1.387       .  A
C80         C549   1.485       .  S
C81          H83   1.081       .  S
Cu84         N87   2.067       .  S
Cu85         N95   2.081       .  S
Cu86         N88   2.097       .  S
Cu86         N94   2.097       .  S
N87          C91   1.343       .  A
N87          N88   1.324       .  A
N88          C89   1.349       .  A
C89          C90   1.386       .  A
C89          H92   1.082       .  S
C90          C91   1.378       .  A
C90         C114   1.470       .  S
C91          H93   1.082       .  S
N94          C98   1.350       .  A
N94          N95   1.324       .  A
N95          C96   1.346       .  A
C96          C97   1.384       .  A
C96          H99   1.082       .  S
C97          C98   1.389       .  A
C97         C398   1.491       .  S
C98         H100   1.082       .  S
N101        C105   1.344       .  A
N101        N102   1.322       .  A
N101       Cu109   2.079       .  S
N102        C103   1.349       .  A
N102       Cu108   2.079       .  S
C103        C104   1.385       .  A
C103        H106   1.082       .  S
C104        C105   1.382       .  A
C104        C369   1.479       .  S
C105        H107   1.081       .  S
Cu108       N111   2.079       .  S
Cu109       N119   2.079       .  S
Cu110       N112   2.089       .  S
Cu110       N118   2.089       .  S
N111        C115   1.347       .  A
N111        N112   1.325       .  A
N112        C113   1.346       .  A
C113        C114   1.383       .  A
C113        H116   1.082       .  S
C114        C115   1.381       .  A
C115        H117   1.082       .  S
N118        C122   1.350   1_655  A
N118        N119   1.322       .  A
N119        C120   1.345   1_655  A
C120        C121   1.385       .  A
C120        H123   1.082       .  S
C121        C122   1.389       .  A
C121        C429   1.490       .  S
C122        H124   1.082       .  S
N125        C129   1.375   1_655  A
N125        C126   1.375       .  A
N125        N132   1.436       .  S
C126        C127   1.383   1_655  A
C126        C378   1.499       .  S
C127        C128   1.355       .  A
C127        H130   1.082       .  S
C128        C129   1.378       .  A
C128        H131   1.083       .  S
C129        C349   1.481   1_455  S
N132        C136   1.376       .  A
N132        C133   1.377       .  A
C133        C134   1.382       .  A
C133        C309   1.498       .  S
C134        C135   1.356       .  A
C134        H137   1.082       .  S
C135        C136   1.379       .  A
C135        H138   1.083       .  S
C136        C329   1.483       .  S
N139        C143   1.343       .  A
N139        N140   1.322       .  A
N139       Cu147   2.063       .  S
N140        C141   1.346       .  A
N140       Cu146   2.076       .  S
C141        C142   1.384       .  A
C141        H144   1.082       .  S
C142        C143   1.380       .  A
C142        C409   1.473       .  S
C143        H145   1.082       .  S
Cu146       N149   2.077       .  S
Cu147       N157   2.060       .  S
Cu148       N150   2.076       .  S
Cu148       N156   2.075       .  S
N149        C153   1.344       .  A
N149        N150   1.323       .  A
N150        C151   1.346       .  A
C151        C152   1.383       .  A
C151        H154   1.082       .  S
C152        C153   1.382       .  A
C152        C176   1.470       .  S
C153        H155   1.082       .  S
N156        C160   1.347       .  A
N156        N157   1.321       .  A
N157        C158   1.341       .  A
C158        C159   1.381       .  A
C158        H161   1.082       .  S
C159        C160   1.385       .  A
C159        C318   1.476       .  S
C160        H162   1.082       .  S
N163        C167   1.345       .  A
N163        N164   1.321       .  A
N163       Cu171   2.065       .  S
N164        C165   1.345       .  A
N164       Cu170   2.077   1_545  S
C165        C166   1.387       .  A
C165        H168   1.082   1_545  S
C166        C167   1.383       .  A
C166        C298   1.484       .  S
C167        H169   1.082       .  S
Cu170       N173   2.077       .  S
Cu171       N181   2.064       .  S
Cu172       N174   2.081   1_545  S
Cu172       N180   2.080       .  S
N173        C177   1.346       .  A
N173        N174   1.324       .  A
N174        C175   1.345       .  A
C175        C176   1.382       .  A
C175        H178   1.082       .  S
C176        C177   1.382       .  A
C177        H179   1.082       .  S
N180        C184   1.350   1_455  A
N180        N181   1.322       .  A
N181        C182   1.340       .  A
C182        C183   1.379   1_455  A
C182        H185   1.082       .  S
C183        C184   1.385       .  A
C183        C358   1.474       .  S
C184        H186   1.082       .  S
N187        C191   1.387       .  A
N187        C188   1.385       .  A
N187        N194   1.451       .  S
C188        C189   1.375       .  A
C188        C458   1.475       .  S
C189        C190   1.337       .  A
C189        H192   1.084       .  S
C190        C191   1.381       .  A
C190        H193   1.083       .  S
C191        C278   1.486       .  S
N194        C198   1.389       .  A
N194        C195   1.388       .  A
C195        C196   1.378       .  A
C195        C249   1.486       .  S
C196        C197   1.343   1_554  A
C196        H199   1.083   1_554  S
C197        C198   1.378   1_556  A
C197        H200   1.083       .  S
C198        C289   1.485       .  S
N201        C205   1.344       .  A
N201        N202   1.320       .  A
N201       Cu209   2.074       .  S
N202        C203   1.341       .  A
N202       Cu208   2.058       .  S
C203        C204   1.383       .  A
C203        H206   1.082       .  S
C204        C205   1.388       .  A
C204        C518   1.484       .  S
C205        H207   1.081       .  S
Cu208       N211   2.058       .  S
Cu209       N219   2.076       .  S
Cu210       N212   2.073       .  S
Cu210       N218   2.074       .  S
N211        C215   1.342       .  A
N211        N212   1.321       .  A
N212        C213   1.346       .  A
C213        C214   1.383       .  A
C213        H216   1.082       .  S
C214        C215   1.379       .  A
C214        C238   1.464       .  S
C215        H217   1.082       .  S
N218        C222   1.345       .  A
N218        N219   1.324       .  A
N219        C220   1.345       .  A
C220        C221   1.383       .  A
C220        H223   1.082       .  S
C221        C222   1.381       .  A
C221        C258   1.477       .  S
C222        H224   1.082       .  S
N225        C229   1.342       .  A
N225        N226   1.321       .  A
N225       Cu233   2.053       .  S
N226        C227   1.345       .  A
N226       Cu232   2.073       .  S
C227        C228   1.384       .  A
C227        H230   1.082       .  S
C228        C229   1.379       .  A
C228        C338   1.471       .  S
C229        H231   1.082       .  S
Cu232       N235   2.073   1_556  S
Cu233       N243   2.052   1_656  S
Cu234       N236   2.072       .  S
Cu234       N242   2.070       .  S
N235        C239   1.345       .  A
N235        N236   1.324       .  A
N236        C237   1.344       .  A
C237        C238   1.381       .  A
C237        H240   1.082       .  S
C238        C239   1.380       .  A
C239        H241   1.082       .  S
N242        C246   1.347   1_655  A
N242        N243   1.321   1_655  A
N243        C244   1.338       .  A
C244        C245   1.376       .  A
C244        H247   1.082       .  S
C245        C246   1.383       .  A
C245        C269   1.466       .  S
C246        H248   1.082   1_455  S
C249        C250   1.411       .  A
C249        C254   1.420       .  A
C250        C251   1.409       .  A
C250       Br262   1.925       .  S
C251        C252   1.415       .  A
C251       Br266   1.931       .  S
C252        C253   1.409       .  A
C252        C255   1.495       .  S
C253        C254   1.408       .  A
C253       Br261   1.934       .  S
C254       Br265   1.934       .  S
C255        C256   1.414       .  A
C255        C260   1.413       .  A
C256        C257   1.409       .  A
C256       Br267   1.931       .  S
C257        C258   1.410       .  A
C257       Br263   1.930       .  S
C258        C259   1.407       .  A
C259        C260   1.406       .  A
C259       Br268   1.933       .  S
C260       Br264   1.924       .  S
C269        C270   1.406       .  A
C269        C274   1.405       .  A
C270        C271   1.401       .  A
C270       Br282   1.933       .  S
C271        C272   1.415       .  A
C271       Br286   1.932       .  S
C272        C273   1.414       .  A
C272        C275   1.485       .  S
C273        C274   1.406       .  A
C273       Br281   1.933       .  S
C274       Br285   1.928       .  S
C275        C276   1.403       .  A
C275        C280   1.414       .  A
C276        C277   1.398       .  A
C276       Br287   1.936       .  S
C277        C278   1.425       .  A
C277       Br283   1.939   1_545  S
C278        C279   1.411       .  A
C279        C280   1.407       .  A
C279       Br288   1.918       .  S
C280       Br284   1.931       .  S
C289        C290   1.408       .  A
C289        C294   1.422   1_554  A
C290        C291   1.412   1_554  A
C290       Br302   1.931   1_545  S
C291        C292   1.420       .  A
C291       Br306   1.931   1_545  S
C292        C293   1.410       .  A
C292        C295   1.502       .  S
C293        C294   1.409       .  A
C293       Br301   1.936       .  S
C294       Br305   1.936   1_556  S
C295        C296   1.415       .  A
C295        C300   1.420       .  A
C296        C297   1.407       .  A
C296       Br307   1.935       .  S
C297        C298   1.410       .  A
C297       Br303   1.933       .  S
C298        C299   1.411       .  A
C299        C300   1.412       .  A
C299       Br308   1.933       .  S
C300       Br304   1.932       .  S
C309        C310   1.419   1_655  A
C309        C314   1.422       .  A
C310        C311   1.413       .  A
C310       Br322   1.923       .  S
C311        C312   1.406       .  A
C311       Br326   1.930       .  S
C312        C313   1.403   1_455  A
C312        C315   1.485       .  S
C313        C314   1.404       .  A
C313       Br321   1.934       .  S
C314       Br325   1.935       .  S
C315        C316   1.410       .  A
C315        C320   1.406       .  A
C316        C317   1.410       .  A
C316       Br327   1.928       .  S
C317        C318   1.409       .  A
C317       Br323   1.927       .  S
C318        C319   1.411       .  A
C319        C320   1.402       .  A
C319       Br328   1.934       .  S
C320       Br324   1.917       .  S
C329        C330   1.413       .  A
C329        C334   1.418       .  A
C330        C331   1.410       .  A
C330       Br342   1.927       .  S
C331        C332   1.408       .  A
C331       Br346   1.931       .  S
C332        C333   1.406       .  A
C332        C335   1.486       .  S
C333        C334   1.407       .  A
C333       Br341   1.932   1_655  S
C334       Br345   1.929   1_655  S
C335        C336   1.411       .  A
C335        C340   1.410       .  A
C336        C337   1.404       .  A
C336       Br347   1.933       .  S
C337        C338   1.407       .  A
C337       Br343   1.930       .  S
C338        C339   1.408       .  A
C339        C340   1.408       .  A
C339       Br348   1.931       .  S
C340       Br344   1.917       .  S
C349        C350   1.419       .  A
C349        C354   1.409   1_655  A
C350        C351   1.410       .  A
C350       Br362   1.929       .  S
C351        C352   1.407       .  A
C351       Br366   1.932       .  S
C352        C353   1.413   1_655  A
C352        C355   1.490       .  S
C353        C354   1.405       .  A
C353       Br361   1.931       .  S
C354       Br365   1.930       .  S
C355        C356   1.409       .  A
C355        C360   1.411   1_655  A
C356        C357   1.406       .  A
C356       Br367   1.920       .  S
C357        C358   1.406       .  A
C357       Br363   1.930       .  S
C358        C359   1.408   1_655  A
C359        C360   1.408       .  A
C359       Br368   1.926       .  S
C360       Br364   1.929       .  S
C369        C370   1.411       .  A
C369        C374   1.409       .  A
C370        C371   1.408       .  A
C370       Br382   1.929       .  S
C371        C372   1.409       .  A
C371       Br386   1.930       .  S
C372        C373   1.407       .  A
C372        C375   1.485       .  S
C373        C374   1.408       .  A
C373       Br381   1.924       .  S
C374       Br385   1.928       .  S
C375        C376   1.406       .  A
C375        C380   1.404       .  A
C376        C377   1.413       .  A
C376       Br387   1.929       .  S
C377        C378   1.420       .  A
C377       Br383   1.924       .  S
C378        C379   1.422       .  A
C379        C380   1.403       .  A
C379       Br388   1.936   1_655  S
C380       Br384   1.935   1_655  S
C389        C390   1.430       .  A
C389        C394   1.414       .  A
C390        C391   1.413       .  A
C390       Br402   1.939       .  S
C391        C392   1.409       .  A
C391       Br406   1.937       .  S
C392        C393   1.417       .  A
C392        C395   1.510       .  S
C393        C394   1.417       .  A
C393       Br401   1.931       .  S
C394       Br405   1.920       .  S
C395        C396   1.419       .  A
C395        C400   1.416       .  A
C396        C397   1.413       .  A
C396       Br407   1.927       .  S
C397        C398   1.411       .  A
C397       Br403   1.933       .  S
C398        C399   1.411       .  A
C399        C400   1.413       .  A
C399       Br408   1.930       .  S
C400       Br404   1.932       .  S
C409        C410   1.406       .  A
C409        C414   1.406       .  A
C410        C411   1.409       .  A
C410       Br422   1.931       .  S
C411        C412   1.416       .  A
C411       Br426   1.925       .  S
C412        C413   1.415       .  A
C412        C415   1.495       .  S
C413        C414   1.406       .  A
C413       Br421   1.933       .  S
C414       Br425   1.931       .  S
C415        C416   1.411       .  A
C415        C420   1.415       .  A
C416        C417   1.409       .  A
C416       Br427   1.934       .  S
C417        C418   1.418       .  A
C417       Br423   1.936       .  S
C418        C419   1.409       .  A
C419        C420   1.407       .  A
C419       Br428   1.931       .  S
C420       Br424   1.930       .  S
C429        C430   1.411       .  A
C429        C434   1.412       .  A
C430        C431   1.412       .  A
C430       Br442   1.930       .  S
C431        C432   1.416       .  A
C431       Br446   1.933       .  S
C432        C433   1.417       .  A
C432        C435   1.506       .  S
C433        C434   1.411       .  A
C433       Br441   1.928       .  S
C434       Br445   1.934       .  S
C435        C436   1.417       .  A
C435        C440   1.409       .  A
C436        C437   1.414       .  A
C436       Br447   1.931       .  S
C437        C438   1.412       .  A
C437       Br443   1.921       .  S
C438        C439   1.429       .  A
C439        C440   1.411       .  A
C439       Br448   1.941       .  S
C440       Br444   1.936       .  S
C449        C450   1.405   1_545  A
C449        C454   1.407       .  A
C450        C451   1.405   1_565  A
C450       Br462   1.930       .  S
C451        C452   1.415       .  A
C451       Br466   1.934   1_545  S
C452        C453   1.412       .  A
C452        C455   1.486       .  S
C453        C454   1.401       .  A
C453       Br461   1.927       .  S
C454       Br465   1.934       .  S
C455        C456   1.413       .  A
C455        C460   1.408       .  A
C456        C457   1.406       .  A
C456       Br467   1.936   1_545  S
C457        C458   1.414       .  A
C457       Br463   1.934   1_545  S
C458        C459   1.419       .  A
C459        C460   1.406       .  A
C459       Br468   1.931       .  S
C460       Br464   1.937       .  S
C469        C470   1.409       .  A
C469        C474   1.418       .  A
C470        C471   1.404       .  A
C470       Br482   1.931       .  S
C471        C472   1.411       .  A
C471       Br486   1.930       .  S
C472        C473   1.409       .  A
C472        C475   1.484       .  S
C473        C474   1.404       .  A
C473       Br481   1.936       .  S
C474       Br485   1.935       .  S
C475        C476   1.415       .  A
C475        C480   1.411       .  A
C476        C477   1.404       .  A
C476       Br487   1.934       .  S
C477        C478   1.405       .  A
C477       Br483   1.931       .  S
C478        C479   1.409       .  A
C479        C480   1.403       .  A
C479       Br488   1.934       .  S
C480       Br484   1.926       .  S
C489        C490   1.415       .  A
C489        C494   1.421       .  A
C490        C491   1.414       .  A
C490       Br502   1.923       .  S
C491        C492   1.408       .  A
C491       Br506   1.928       .  S
C492        C493   1.403       .  A
C492        C495   1.487       .  S
C493        C494   1.405       .  A
C493       Br501   1.938       .  S
C494       Br505   1.929       .  S
C495        C496   1.411       .  A
C495        C500   1.408       .  A
C496        C497   1.406       .  A
C496       Br507   1.932       .  S
C497        C498   1.409       .  A
C497       Br503   1.930       .  S
C498        C499   1.412       .  A
C499        C500   1.411       .  A
C499       Br508   1.929       .  S
C500       Br504   1.924       .  S
C509        C510   1.420       .  A
C509        C514   1.403       .  A
C510        C511   1.404       .  A
C510       Br522   1.928       .  S
C511        C512   1.406       .  A
C511       Br526   1.933       .  S
C512        C513   1.411       .  A
C512        C515   1.483       .  S
C513        C514   1.405       .  A
C513       Br521   1.923       .  S
C514       Br525   1.911       .  S
C515        C516   1.412       .  A
C515        C520   1.408       .  A
C516        C517   1.404       .  A
C516       Br527   1.941       .  S
C517        C518   1.416       .  A
C517       Br523   1.934       .  S
C518        C519   1.416       .  A
C519        C520   1.408       .  A
C519       Br528   1.932       .  S
C520       Br524   1.931       .  S
C529        C530   1.408       .  A
C529        C534   1.410       .  A
C530        C531   1.408       .  A
C530       Br542   1.928       .  S
C531        C532   1.412       .  A
C531       Br546   1.930       .  S
C532        C533   1.408       .  A
C532        C535   1.490       .  S
C533        C534   1.407       .  A
C533       Br541   1.915       .  S
C534       Br545   1.932       .  S
C535        C536   1.410       .  A
C535        C540   1.404       .  A
C536        C537   1.413       .  A
C536       Br547   1.928       .  S
C537        C538   1.413       .  A
C537       Br543   1.925       .  S
C538        C539   1.422       .  A
C539        C540   1.405       .  A
C539       Br548   1.932       .  S
C540       Br544   1.936       .  S
C549        C550   1.415       .  A
C549        C554   1.414       .  A
C550        C551   1.409       .  A
C550       Br562   1.928       .  S
C551        C552   1.407       .  A
C551       Br566   1.930       .  S
C552        C553   1.411       .  A
C552        C555   1.481       .  S
C553        C554   1.405       .  A
C553       Br561   1.937       .  S
C554       Br565   1.933       .  S
C555        C556   1.411       .  A
C555        C560   1.406       .  A
C556        C557   1.408       .  A
C556       Br567   1.919       .  S
C557        C558   1.400       .  A
C557       Br563   1.914       .  S
C558        C559   1.415       .  A
C559        C560   1.401       .  A
C559       Br568   1.926       .  S
C560       Br564   1.929       .  S
