geometry optimzed in LAMMPS
_audit_creation_date              2020-11-30 
_audit_creation_method            'lammps2cif' 
_symmetry_space_group_name_H-M    'P1' 
_symmetry_Int_Tables_number       1 
_symmetry_cell_setting            triclinic 
loop_ 
_symmetry_equiv_pos_as_xyz 
  x,y,z 
_cell_length_a                    50.94499756 
_cell_length_b                    49.79631572100457 
_cell_length_c                    50.12363850039305 
_cell_angle_alpha                 89.58814734838533 
_cell_angle_beta                  89.51971781868963 
_cell_angle_gamma                 89.95619884894347 
loop_ 
_atom_site_label 
_atom_site_type_symbol 
_atom_site_fract_x 
_atom_site_fract_y 
_atom_site_fract_z 
_atom_site_charge 
O1          O  0.55161358  0.96652203  0.49249054    -0.79600
O2          O  0.44295627  0.98926468  0.51785551    -0.79600
O3          O  0.51121528  0.95892839  0.53595057    -0.79700
O4          O  0.50367928  0.95308179  0.46156098    -0.79600
O5          O  0.48209873  0.98635586  0.55447677    -0.79700
O6          O  0.53232974  0.98021778  0.44438188    -0.79600
O7          O  0.45941817  0.95624940  0.49384725    -0.79600
O8          O  0.56334406  0.97578126  0.53356587    -0.79700
C9          C  0.56802703  0.96397300  0.51173873     1.10100
C10         C  0.44126493  0.96593995  0.50821386     1.10000
C11         C  0.49588228  0.96485976  0.55513311     1.10100
C12         C  0.51897114  0.95894488  0.44256910     1.10000
O13         O  0.51886241  0.03282068  0.45994508    -0.79600
O14         O  0.49999711  0.03928988  0.53689745    -0.79700
O15         O  0.55288290  0.02283105  0.50875376    -0.79600
O16         O  0.44749082  0.00745940  0.47014117    -0.79600
O17         O  0.46026210  0.03920729  0.49807149    -0.79700
O18         O  0.56879054  0.01235358  0.46910912    -0.79600
O19         O  0.49080685  0.00626718  0.43920969    -0.79600
O20         O  0.52616682  0.00968622  0.55421957    -0.79700
Co21       Co  0.53382584  0.00138746  0.47845650     1.51500
Co22       Co  0.47331949  0.01316402  0.52502796     1.51700
Co23       Co  0.53071309  0.98943482  0.52017336     1.51600
Co24       Co  0.47690339  0.98098880  0.46810296     1.51500
O25         O  0.49881137  0.99701956  0.49763111    -1.41600
C26         C  0.50533511  0.02721123  0.43955205     1.10000
C27         C  0.51328916  0.03122032  0.55652422     1.10100
C28         C  0.57149049  0.02432474  0.49115237     1.10000
C29         C  0.44504002  0.03076253  0.47999170     1.10000
O30         O  0.03400325  0.55029565  0.49281751    -0.79600
O31         O  0.01705369  0.43968615  0.52468262    -0.79600
O32         O  0.04351902  0.51041081  0.53952176    -0.79700
O33         O  0.05010790  0.49980476  0.46399246    -0.79600
O34         O  0.01645609  0.48135099  0.55906299    -0.79700
O35         O  0.02203707  0.52664156  0.44564258    -0.79600
O36         O  0.04918573  0.45677392  0.50008839    -0.79600
O37         O  0.02553449  0.56304195  0.53408938    -0.79700
C38         C  0.03593876  0.56787978  0.51149442     1.10100
C39         C  0.04027475  0.43860920  0.51546242     1.10000
C40         C  0.03723646  0.49567577  0.55936164     1.10100
C41         C  0.04328998  0.51359487  0.44399318     1.10000
O42         O  0.97152876  0.51086316  0.46233280    -0.79600
O43         O  0.96477784  0.49680932  0.53994476    -0.79700
O44         O  0.98038674  0.54929661  0.50993830    -0.79600
O45         O  0.00029002  0.44000536  0.47739591    -0.79600
O46         O  0.96764406  0.45414877  0.50327851    -0.79700
O47         O  0.98858272  0.56415612  0.46914974    -0.79600
O48         O  0.99944377  0.48192835  0.44393871    -0.79600
O49         O  0.99258989  0.52528580  0.55630179    -0.79700
Co50       Co  0.00110800  0.52922850  0.47990744     1.51500
Co51       Co  0.99178306  0.46990510  0.52979223     1.51700
Co52       Co  0.01359153  0.52859173  0.52240066     1.51600
Co53       Co  0.02454223  0.47135013  0.47323592     1.51500
O54         O  0.00731734  0.49496149  0.50123254    -1.41600
C55         C  0.97797804  0.49521790  0.44339122     1.10000
C56         C  0.97138504  0.51227417  0.55862146     1.10100
C57         C  0.97839573  0.56788987  0.49205844     1.10000
C58         C  0.97692246  0.43790688  0.48618487     1.10000
O59         O  0.44367675  0.46885971  0.98175043    -0.79600
O60         O  0.55232249  0.49808891  0.96361553    -0.79600
O61         O  0.50228363  0.52951687  0.94546663    -0.79700
O62         O  0.51297197  0.45106335  0.95700061    -0.79600
O63         O  0.52935055  0.54698356  0.97351764    -0.79700
O64         O  0.48358976  0.43391787  0.98517144    -0.79600
O65         O  0.56412906  0.45706924  0.97542161    -0.79600
O66         O  0.45936615  0.49328573  0.94798594    -0.79700
C67         C  0.44256204  0.47695279  0.95773314     1.10100
C68         C  0.56950981  0.47896276  0.96352176     1.10000
C69         C  0.51636684  0.54915994  0.95225051     1.10100
C70         C  0.49816142  0.43182574  0.96440850     1.10000
O71         O  0.49819732  0.45656276  0.03624320    -0.79600
O72         O  0.51305368  0.53296219  0.02508351    -0.79700
O73         O  0.44367117  0.51749392  0.99601606    -0.79600
O74         O  0.55057852  0.48455244  0.01934678    -0.79600
O75         O  0.56504551  0.52479245  0.00833946    -0.79700
O76         O  0.45669891  0.49405275  0.03105104    -0.79600
O77         O  0.52623370  0.43740503  0.00970890    -0.79600
O78         O  0.48501274  0.55123990  0.99648742    -0.79700
Co79       Co  0.47241569  0.46539019  0.00821932     1.51500
Co80       Co  0.53116229  0.51346108  0.99604855     1.51700
Co81       Co  0.47447505  0.52088061  0.97197040     1.51600
Co82       Co  0.53041258  0.47014922  0.98635989     1.51500
O83         O  0.49739797  0.49259027  0.99052579    -1.41600
C84         C  0.51208670  0.43631234  0.03052172     1.10000
C85         C  0.49848640  0.55243785  0.01785854     1.10100
C86         C  0.44013914  0.50931383  0.01971957     1.10000
C87         C  0.56885800  0.50247144  0.02002748     1.10000
C88         C  0.56371217  0.91542379  0.71927721     0.03600
C89         C  0.58373119  0.89601115  0.72122847    -0.12500
C90         C  0.59674048  0.89131922  0.74528815     0.01100
C91         C  0.58951039  0.90591998  0.76789158    -0.11000
C92         C  0.56992945  0.92582134  0.76669522     0.03600
C93         C  0.55699772  0.93043609  0.74221048    -0.10400
H94         H  0.58915433  0.88399845  0.70419896     0.09200
H95         H  0.59974544  0.90211729  0.78639446     0.06800
H96         H  0.54176317  0.94551124  0.74093618     0.06600
C97         C  0.74975620  0.72538422  0.77679952     0.80700
N98         N  0.73076808  0.74455931  0.77641717    -0.77600
C99         C  0.73086055  0.76380273  0.75706166     0.83200
N100        N  0.75007336  0.76388328  0.73815410    -0.77500
C101        C  0.76915412  0.74484627  0.73844144     0.83300
N102        N  0.76891054  0.72558521  0.75776082    -0.79200
C103        C  0.93902567  0.77421142  0.58786469     0.03600
C104        C  0.91941175  0.77267526  0.60783381    -0.12500
C105        C  0.90670850  0.74849404  0.61379677     0.01100
C106        C  0.91334711  0.72545764  0.59944861    -0.11000
C107        C  0.93262784  0.72616708  0.57915721     0.03600
C108        C  0.94539619  0.75074548  0.57344784    -0.10400
H109        H  0.91387367  0.79015423  0.61920131     0.09200
H110        H  0.90260165  0.70722994  0.60360417     0.06800
H111        H  0.96030451  0.75156299  0.55793814     0.06600
C112        C  0.78036427  0.56390339  0.93998752     0.03600
C113        C  0.75728901  0.54896275  0.94566484    -0.12500
C114        C  0.73345742  0.55523184  0.93256977     0.01100
C115        C  0.73306853  0.57684215  0.91428454    -0.11000
C116        C  0.75585900  0.59123308  0.90806571     0.03600
C117        C  0.77928572  0.58457634  0.92080569    -0.10400
H118        H  0.75790452  0.53262254  0.95999557     0.09200
H119        H  0.71506741  0.58213472  0.90414047     0.06800
H120        H  0.79671909  0.59616868  0.91612327     0.06600
C121        C  0.26762470  0.21663146  0.75754720     0.80700
N122        N  0.26639580  0.23422300  0.77813574    -0.77600
C123        C  0.24693141  0.25286531  0.77913733     0.83200
N124        N  0.22891634  0.25397129  0.75941510    -0.77500
C125        C  0.23009975  0.23652851  0.73881123     0.83300
N126        N  0.24941333  0.21783302  0.73794208    -0.79200
C127        C  0.27275950  0.41882457  0.93362870     0.03600
C128        C  0.27127152  0.39713236  0.91610142    -0.12500
C129        C  0.24723918  0.38554932  0.90961701     0.01100
C130        C  0.22415383  0.39588301  0.92091787    -0.11000
C131        C  0.22490427  0.41737643  0.93908889     0.03600
C132        C  0.24948818  0.42919710  0.94501052    -0.10400
H133        H  0.28909023  0.38969553  0.90684726     0.09200
H134        H  0.20558372  0.38665147  0.91595351     0.06800
H135        H  0.25072300  0.44581126  0.95873990     0.06600
C136        C  0.43259170  0.05999847  0.76969913     0.03600
C137        C  0.44580722  0.05512318  0.74532126    -0.12500
C138        C  0.43924346  0.07000425  0.72208166     0.01100
C139        C  0.41874205  0.08901206  0.72361573    -0.11000
C140        C  0.40571551  0.09392736  0.74768208     0.03600
C141        C  0.41248791  0.07927689  0.77035203    -0.10400
H142        H  0.46150943  0.04047295  0.74465137     0.09200
H143        H  0.41285796  0.10047923  0.70631860     0.06800
H144        H  0.40142275  0.08259640  0.78854492     0.06600
C145        C  0.06401421  0.22023310  0.58545708     0.03600
C146        C  0.05900028  0.24509598  0.57261105    -0.12500
C147        C  0.07438380  0.26793384  0.57855700     0.01100
C148        C  0.09430064  0.26559245  0.59755771    -0.11000
C149        C  0.09980761  0.24102643  0.60975917     0.03600
C150        C  0.08488392  0.21848403  0.60355140    -0.10400
H151        H  0.04320129  0.24672017  0.55845071     0.09200
H152        H  0.10613797  0.28290664  0.60257074     0.06800
H153        H  0.08914437  0.19967513  0.61359025     0.06600
O154        O  0.47205473  0.99903496  0.95221322    -0.79600
O155        O  0.49777639  0.96639088  0.06068521    -0.79600
O156        O  0.46531473  0.95168868  0.99179122    -0.79700
O157        O  0.45900785  0.02815830  0.00557474    -0.79600
O158        O  0.49397917  0.93206238  0.01877810    -0.79700
O159        O  0.48467054  0.04615665  0.97569250    -0.79600
O160        O  0.46405258  0.99102963  0.04797142    -0.79600
O161        O  0.48003731  0.95801112  0.93820793    -0.79700
C162        C  0.47008957  0.98097130  0.93403207     1.10100
C163        C  0.47505435  0.97586901  0.06498419     1.10000
C164        C  0.47248422  0.93157914  0.00574039     1.10100
C165        C  0.46483526  0.04806936  0.99091573     1.10000
O166        O  0.53626129  0.03022094  0.98726230    -0.79600
O167        O  0.54436435  0.95175989  0.99870775    -0.79700
O168        O  0.52579490  0.98289115  0.94884520    -0.79600
O169        O  0.51423917  0.01422392  0.05909792    -0.79600
O170        O  0.54532089  0.98869731  0.04117671    -0.79700
O171        O  0.51614132  0.02414115  0.93585683    -0.79600
O172        O  0.51083266  0.04890302  0.01811353    -0.79600
O173        O  0.51456134  0.93540908  0.97287833    -0.79700
Co174      Co  0.50585612  0.01232517  0.97102408     1.51500
Co175      Co  0.51984127  0.96167733  0.02802146     1.51700
Co176      Co  0.49389747  0.96956880  0.97175887     1.51600
Co177      Co  0.48713629  0.01859686  0.03085757     1.51500
O178        O  0.50198848  0.99050640  0.00518702    -1.41600
C179        C  0.53073688  0.04980188  0.00246189     1.10000
C180        C  0.53633588  0.93272613  0.98438030     1.10100
C181        C  0.52680075  0.00163822  0.93093083     1.10000
C182        C  0.53759160  0.00535446  0.05867564     1.10000
C183        C  0.28055092  0.74007815  0.76640369     0.80700
N184        N  0.28045755  0.75956226  0.74727034    -0.77600
C185        C  0.26233901  0.75907606  0.72752870     0.83200
N186        N  0.24417864  0.73915005  0.72713556    -0.77500
C187        C  0.24397675  0.71977957  0.74631384     0.83300
N188        N  0.26218307  0.72029505  0.76592581    -0.81600
C189        C  0.44507215  0.71863329  0.92088329     0.03600
C190        C  0.42484083  0.71954076  0.90191009    -0.12500
C191        C  0.41035827  0.74305823  0.89742921     0.01100
C192        C  0.41582051  0.76593099  0.91246815    -0.11000
C193        C  0.43534640  0.76568978  0.93211983     0.03600
C194        C  0.45010082  0.74189941  0.93615250    -0.10400
H195        H  0.42052829  0.70192164  0.89013761     0.09200
H196        H  0.40427796  0.78392012  0.90923047     0.06800
H197        H  0.46540583  0.74155472  0.95092491     0.06600
C198        C  0.22949706  0.93732793  0.58243683     0.03600
C199        C  0.22971633  0.91694697  0.60210836    -0.12500
C200        C  0.25307571  0.90378378  0.60873050     0.01100
C201        C  0.27616463  0.91028553  0.59506338    -0.11000
C202        C  0.27639835  0.92943212  0.57447447     0.03600
C203        C  0.25301121  0.94337781  0.56847275    -0.10400
H204        H  0.21183628  0.91165920  0.61274718     0.09200
H205        H  0.29397112  0.89946597  0.59995767     0.06800
H206        H  0.25292902  0.95831971  0.55269573     0.06600
C207        C  0.07354280  0.56903300  0.77350403     0.03600
C208        C  0.06769298  0.55522005  0.74980375    -0.12500
C209        C  0.08291840  0.55946601  0.72645363     0.01100
C210        C  0.10389174  0.57779348  0.72717064    -0.11000
C211        C  0.11012548  0.59136365  0.75063847     0.03600
C212        C  0.09503687  0.58672155  0.77367876    -0.10400
H213        H  0.05134080  0.54142926  0.74954735     0.09200
H214        H  0.11561333  0.58147992  0.70939561     0.06800
H215        H  0.09953181  0.59771069  0.79165051     0.06600
C216        C  0.74030596  0.23016804  0.23851455     0.80700
N217        N  0.74148010  0.24905028  0.21886556    -0.77600
C218        C  0.76148010  0.26707381  0.21800979     0.83200
N219        N  0.78048931  0.26602362  0.23693173    -0.77500
C220        C  0.77951153  0.24698941  0.25653742     0.83300
N221        N  0.75931233  0.22923162  0.25728290    -0.79200
C222        C  0.93419131  0.26966166  0.42145299     0.03600
C223        C  0.91561899  0.26933420  0.40096571    -0.12500
C224        C  0.90746897  0.24520260  0.38960808     0.01100
C225        C  0.91840467  0.22099295  0.39866573    -0.11000
C226        C  0.93788785  0.22068478  0.41858062     0.03600
C227        C  0.94515758  0.24525269  0.43043168    -0.10400
H228        H  0.90690769  0.28805041  0.39430907     0.09200
H229        H  0.91188599  0.20251849  0.38970052     0.06800
H230        H  0.95992925  0.24552565  0.44586549     0.06600
C231        C  0.78210955  0.42593717  0.05041498     0.03600
C232        C  0.78190963  0.40613916  0.07060741    -0.12500
C233        C  0.75858899  0.39845963  0.08339285     0.01100
C234        C  0.73506976  0.41115836  0.07638339    -0.11000
C235        C  0.73463143  0.43192289  0.05719476     0.03600
C236        C  0.75832426  0.43919481  0.04406728    -0.10400
H237        H  0.79993283  0.39601374  0.07605115     0.09200
H238        H  0.71710181  0.40535743  0.08659878     0.06800
H239        H  0.75810040  0.45458735  0.02881549     0.06600
C240        C  0.57473112  0.07427099  0.27344539     0.03600
C241        C  0.59420325  0.09431472  0.27335728    -0.12500
C242        C  0.60663860  0.10237455  0.24958237     0.01100
C243        C  0.59967632  0.09022479  0.22566689    -0.11000
C244        C  0.58101448  0.06962550  0.22509177     0.03600
C245        C  0.56850936  0.06154799  0.24910987    -0.10400
H246        H  0.59920604  0.10426748  0.29176621     0.09200
H247        H  0.60940953  0.09646133  0.20734206     0.06800
H248        H  0.55377403  0.04595070  0.24865948     0.06600
O249        O  0.96568233  0.54353652  0.99577915    -0.79600
O250        O  0.04054391  0.55035031  0.00447535    -0.79600
O251        O  0.98303527  0.51167999  0.06381486    -0.79700
O252        O  0.01083162  0.53796989  0.95470317    -0.79600
O253        O  0.00691996  0.54573933  0.04875268    -0.79700
O254        O  0.97039067  0.52984062  0.94192050    -0.79600
O255        O  0.05769976  0.52390121  0.97511750    -0.79600
O256        O  0.94802426  0.51339850  0.02323612    -0.79700
C257        C  0.94648507  0.53536003  0.01001105     1.10100
C258        C  0.05959768  0.54452440  0.98939580     1.10000
C259        C  0.99182865  0.53532579  0.06624853     1.10100
C260        C  0.99254205  0.54059906  0.93726267     1.10000
O261        O  0.99527660  0.48303428  0.95113288    -0.79600
O262        O  0.03050090  0.49524366  0.06075125    -0.79700
O263        O  0.96780229  0.46242785  0.00397494    -0.79600
O264        O  0.04262821  0.47118574  0.98750049    -0.79600
O265        O  0.06206022  0.49708542  0.01737929    -0.79700
O266        O  0.95049842  0.49251208  0.97764169    -0.79600
O267        O  0.03497459  0.49329123  0.93659887    -0.79600
O268        O  0.00482989  0.46261204  0.04626376    -0.79700
Co269      Co  0.98296613  0.51492920  0.97496503     1.51500
Co270      Co  0.03311073  0.52193331  0.03110771     1.51700
Co271      Co  0.97782157  0.48800620  0.03235333     1.51600
Co272      Co  0.02451412  0.50271708  0.97230850     1.51500
O273        O  0.00478364  0.50609329  0.00752173    -1.41600
C274        C  0.01282175  0.48261327  0.93243583     1.10000
C275        C  0.02182620  0.47145092  0.06247571     1.10100
C276        C  0.94889040  0.47011180  0.98953299     1.10000
C277        C  0.06214917  0.47644621  0.00225065     1.10000
C278        C  0.22810320  0.06178632  0.42511201     0.03600
C279        C  0.22652550  0.08118804  0.40449868    -0.12500
C280        C  0.24927296  0.09214521  0.39297228     0.01100
C281        C  0.27374554  0.08438846  0.40270892    -0.11000
C282        C  0.27598861  0.06581985  0.42368572     0.03600
C283        C  0.25307996  0.05454716  0.43503723    -0.10400
H284        H  0.20761119  0.08707514  0.39661494     0.09200
H285        H  0.29127811  0.09350645  0.39429827     0.06800
H286        H  0.25482016  0.04001141  0.45108671     0.06600
C287        C  0.24178736  0.27021990  0.24859714     0.80700
N288        N  0.23874970  0.24876267  0.26515299    -0.77600
C289        C  0.25407262  0.22665489  0.26234205     0.83200
N290        N  0.27265369  0.22604731  0.24269817    -0.77500
C291        C  0.27588478  0.24750278  0.22600057     0.83300
N292        N  0.26041093  0.26956467  0.22906251    -0.79200
C293        C  0.09156571  0.44206101  0.27877934     0.03600
C294        C  0.07971508  0.44804128  0.25393254    -0.12500
C295        C  0.08955454  0.43657923  0.23018730     0.01100
C296        C  0.11096725  0.41890329  0.23152421    -0.11000
C297        C  0.12222156  0.41191945  0.25594056     0.03600
C298        C  0.11234784  0.42332096  0.27944459    -0.10400
H299        H  0.06348951  0.46202178  0.25280735     0.09200
H300        H  0.11828494  0.40958329  0.21345443     0.06800
H301        H  0.12140589  0.41799808  0.29825127     0.06600
C302        C  0.44300948  0.26635206  0.06989236     0.03600
C303        C  0.42345255  0.26607184  0.08994632    -0.12500
C304        C  0.41015826  0.24243415  0.09699261     0.01100
C305        C  0.41626172  0.21867432  0.08347529    -0.11000
C306        C  0.43520334  0.21808983  0.06291420     0.03600
C307        C  0.44879974  0.24211660  0.05631431    -0.10400
H308        H  0.41862691  0.28438182  0.10045278     0.09200
H309        H  0.40553199  0.20055234  0.08844796     0.06800
H310        H  0.46354182  0.24200726  0.04064853     0.06600
C311        C  0.77119058  0.27782649  0.75030998     0.80700
N312        N  0.76954042  0.25998379  0.73009732    -0.77600
C313        C  0.75056437  0.24089437  0.73024966     0.83200
N314        N  0.73323962  0.23950592  0.75092083    -0.77500
C315        C  0.73480037  0.25730301  0.77127014     0.83300
N316        N  0.75377805  0.27646717  0.77090857    -0.79200
C317        C  0.92157976  0.44777097  0.72481967     0.03600
C318        C  0.93586402  0.45416533  0.74807442    -0.12500
C319        C  0.93187799  0.43949117  0.77202972     0.01100
C320        C  0.91367204  0.41824900  0.77226203    -0.11000
C321        C  0.89944018  0.41169920  0.74955787     0.03600
C322        C  0.90363946  0.42622032  0.72599570    -0.10400
H323        H  0.94979148  0.47056766  0.74761672     0.09200
H324        H  0.91091280  0.40605283  0.78988828     0.06800
H325        H  0.89241378  0.42053480  0.70864511     0.06600
C326        C  0.57825844  0.21758731  0.93450427     0.03600
C327        C  0.60099980  0.21857126  0.91841014    -0.12500
C328        C  0.60931168  0.24249334  0.90643308     0.01100
C329        C  0.59504181  0.26597843  0.91088644    -0.11000
C330        C  0.57188908  0.26586437  0.92645962     0.03600
C331        C  0.56379166  0.24147182  0.93868705    -0.10400
H332        H  0.61278669  0.20073023  0.91553984     0.09200
H333        H  0.60207636  0.28422388  0.90164534     0.06800
H334        H  0.54610303  0.24092690  0.95080515     0.06600
C335        C  0.72869579  0.07887890  0.56704276     0.03600
C336        C  0.75329694  0.06625793  0.56324451    -0.12500
C337        C  0.77560457  0.07569513  0.57678546     0.01100
C338        C  0.77315458  0.09777733  0.59374258    -0.11000
C339        C  0.74883957  0.10984314  0.59841446     0.03600
C340        C  0.72671149  0.10034583  0.58508049    -0.10400
H341        H  0.75516426  0.04945170  0.54983690     0.09200
H342        H  0.79021831  0.10505238  0.60426374     0.06800
H343        H  0.70798727  0.11014100  0.58833226     0.06600
C344        C  0.73456688  0.75411137  0.27308226     0.80700
N345        N  0.75190296  0.73338419  0.27334500    -0.77600
C346        C  0.75031577  0.71354511  0.25501034     0.83200
N347        N  0.73121356  0.71445606  0.23632800    -0.77500
C348        C  0.71373863  0.73508880  0.23588034     0.83300
N349        N  0.71549667  0.75497793  0.25423804    -0.79200
C350        C  0.72867692  0.90970353  0.44196027     0.03600
C351        C  0.72742071  0.89084994  0.42121578    -0.12500
C352        C  0.75002145  0.88288820  0.40730336     0.01100
C353        C  0.77423015  0.89425272  0.41400452    -0.11000
C354        C  0.77609772  0.91344524  0.43436918     0.03600
C355        C  0.75319081  0.92119182  0.44825135    -0.10400
H356        H  0.70875987  0.88189764  0.41606038     0.09200
H357        H  0.79156725  0.88873048  0.40271220     0.06800
H358        H  0.75465028  0.93588619  0.46397012     0.06600
C359        C  0.91995384  0.56374430  0.23352950     0.03600
C360        C  0.92744832  0.55029946  0.25726178    -0.12500
C361        C  0.91303178  0.55393679  0.28119168     0.01100
C362        C  0.89142323  0.57155335  0.28101786    -0.11000
C363        C  0.88376594  0.58491035  0.25771555     0.03600
C364        C  0.89780119  0.58060114  0.23407722    -0.10400
H365        H  0.94430333  0.53709340  0.25722265     0.09200
H366        H  0.88013366  0.57497373  0.29899233     0.06800
H367        H  0.89177569  0.59111948  0.21615638     0.06600
C368        C  0.57644578  0.76583010  0.05521648     0.03600
C369        C  0.56230794  0.74195709  0.04966351    -0.12500
C370        C  0.56551355  0.71865727  0.06577679     0.01100
C371        C  0.58264365  0.71994950  0.08762478    -0.11000
C372        C  0.59655373  0.74323541  0.09349541     0.03600
C373        C  0.59333039  0.76593703  0.07737911    -0.10400
H374        H  0.54917497  0.74141993  0.03276051     0.09200
H375        H  0.58503406  0.70297547  0.10083459     0.06800
H376        H  0.60436479  0.78385837  0.08243441     0.06600
C377        C  0.22778581  0.75026191  0.26106887     0.80700
N378        N  0.24796517  0.76800156  0.26222996    -0.77600
C379        C  0.26876799  0.76590934  0.24526216     0.83200
N380        N  0.26939818  0.74581476  0.22701502    -0.77500
C381        C  0.24927848  0.72794101  0.22580579     0.83300
N382        N  0.22855100  0.73024291  0.24288244    -0.79200
C383        C  0.44065335  0.91281983  0.28407856     0.03600
C384        C  0.44610014  0.92803497  0.26080311    -0.12500
C385        C  0.43081375  0.92498383  0.23767402     0.01100
C386        C  0.41021391  0.90637358  0.23790832    -0.11000
C387        C  0.40448641  0.89108167  0.26070446     0.03600
C388        C  0.41945971  0.89455511  0.28380183    -0.10400
H389        H  0.46217225  0.94224863  0.26071652     0.09200
H390        H  0.39868545  0.90346622  0.22009367     0.06800
H391        H  0.41478481  0.88244405  0.30119833     0.06600
C392        C  0.06559326  0.77907600  0.42066140     0.03600
C393        C  0.06104777  0.75520582  0.43558917    -0.12500
C394        C  0.07411623  0.73105303  0.42888548     0.01100
C395        C  0.09173578  0.73126740  0.40707298    -0.11000
C396        C  0.09650151  0.75458637  0.39220589     0.03600
C397        C  0.08372071  0.77833450  0.39924525    -0.10400
H398        H  0.04731322  0.75537647  0.45220837     0.09200
H399        H  0.10267811  0.71350121  0.40184205     0.06800
H400        H  0.08777736  0.79609235  0.38730560     0.06600
C401        C  0.27173451  0.56391064  0.06591196     0.03600
C402        C  0.27204493  0.58243764  0.08671964    -0.12500
C403        C  0.24976055  0.59748880  0.09305886     0.01100
C404        C  0.22657775  0.59339497  0.07885973    -0.11000
C405        C  0.22559529  0.57492242  0.05776737     0.03600
C406        C  0.24849852  0.56028177  0.05119524    -0.10400
H407        H  0.28990304  0.58531282  0.09794400     0.09200
H408        H  0.20935078  0.60504337  0.08406830     0.06800
H409        H  0.24827736  0.54594217  0.03508190     0.06600
O410        O  0.99978241  0.95950819  0.55107489    -0.79600
O411        O  0.01074006  0.03622747  0.54636186    -0.79600
O412        O  0.04915842  0.98993530  0.53607050    -0.79700
O413        O  0.94141064  0.02160702  0.52067677    -0.79600
O414        O  0.06216526  0.03136788  0.52742373    -0.79700
O415        O  0.95809997  0.99515303  0.55188499    -0.79600
O416        O  0.98179434  0.05613724  0.52001582    -0.79600
O417        O  0.02636813  0.94244294  0.52207355    -0.79700
C418        C  0.01335166  0.93983555  0.54345362     1.10100
C419        C  0.99568006  0.05588959  0.54109824     1.10000
C420        C  0.06647652  0.00870521  0.53829411     1.10100
C421        C  0.94110754  0.01196636  0.54418254     1.10000
O422        O  0.94091294  0.97439599  0.50191412    -0.79600
O423        O  0.04880605  0.00796728  0.48114396    -0.79700
O424        O  0.01139751  0.96079009  0.47160608    -0.79600
O425        O  0.99687291  0.03735807  0.46693867    -0.79600
O426        O  0.02437209  0.05473939  0.49469044    -0.79700
O427        O  0.98256171  0.94093685  0.49879176    -0.79600
O428        O  0.95498468  0.00104001  0.46933260    -0.79600
O429        O  0.06293609  0.96691825  0.48952837    -0.79700
Co430      Co  0.97202177  0.96935490  0.52562378     1.51500
Co431      Co  0.02835229  0.01990692  0.51519972     1.51700
Co432      Co  0.02890243  0.97761885  0.50227842     1.51600
Co433      Co  0.97057880  0.02713351  0.49434858     1.51500
O434        O  0.99520210  0.99838771  0.50911277    -1.41600
C435        C  0.93861361  0.98413459  0.47858961     1.10000
C436        C  0.06678313  0.98980185  0.47896126     1.10100
C437        C  0.99634854  0.94115588  0.47733302     1.10000
C438        C  0.01072348  0.05706843  0.47378842     1.10000
C439        C  0.01814204  0.88713904  0.43909075     0.30300
C440        C  0.03594095  0.87433731  0.42191616    -0.36100
C441        C  0.03901460  0.84657265  0.42569077     0.16300
C442        C  0.02549489  0.83211434  0.44487709     0.22100
C443        C  0.00716097  0.84483068  0.46172439    -0.34200
C444        C  0.00404639  0.87270471  0.45795423     0.16200
O445        O  0.01535524  0.91336985  0.44173683    -0.26200
C446        C  0.99893060  0.91590542  0.46234257     0.06000
C447        C  0.99094905  0.89119169  0.47290397    -0.31100
O448        O  0.03285336  0.80658391  0.44584980    -0.22900
C449        C  0.05136270  0.80462127  0.42692160    -0.02900
C450        C  0.05581854  0.82912209  0.41385261    -0.17300
H451        H  0.04769306  0.88549410  0.40755790     0.20700
H452        H  0.99695093  0.83401240  0.47750136     0.19000
H453        H  0.97978798  0.88748468  0.49104218     0.19000
H454        H  0.06978862  0.83404858  0.39820982     0.14800
C455        C  0.26294260  0.68018811  0.17646883     0.30300
C456        C  0.27800462  0.66664637  0.15723693    -0.36100
C457        C  0.26461526  0.64741837  0.14223134     0.16300
C458        C  0.23825487  0.64196043  0.14579890     0.22100
C459        C  0.22333314  0.65513938  0.16530084    -0.34200
C460        C  0.23671238  0.67426332  0.18036004     0.16200
O461        O  0.27104618  0.69976216  0.19198260    -0.26200
C462        C  0.24973598  0.70624539  0.20608655     0.06000
C463        C  0.22787721  0.69091342  0.19980198    -0.31100
O464        O  0.22951120  0.62391710  0.12897728    -0.22900
C465        C  0.25060567  0.61745375  0.11460766    -0.02900
C466        C  0.27302770  0.63149435  0.12198333    -0.17300
H467        H  0.29856512  0.67108737  0.15390893     0.20700
H468        H  0.20265575  0.65107957  0.16823955     0.19000
H469        H  0.20817532  0.69236105  0.20787822     0.19000
H470        H  0.29254118  0.63055187  0.11334624     0.14800
C471        C  0.14550931  0.76644271  0.34371251     0.30300
C472        C  0.16607780  0.78056833  0.33124436    -0.36100
C473        C  0.17950928  0.76696125  0.31088904     0.16300
C474        C  0.17295245  0.74134147  0.30300546     0.22100
C475        C  0.15236997  0.72718734  0.31549098    -0.34200
C476        C  0.13919158  0.74066235  0.33615177     0.16200
O477        O  0.13103537  0.77496887  0.36389388    -0.26200
C478        C  0.11540976  0.75427230  0.36961540     0.06000
C479        C  0.11960216  0.73239164  0.35291474    -0.31100
O480        O  0.18864467  0.73223710  0.28402639    -0.22900
C481        C  0.20558877  0.75222013  0.27990194    -0.02900
C482        C  0.20081928  0.77432234  0.29603312    -0.17300
H483        H  0.17160935  0.80055827  0.33739590     0.20700
H484        H  0.14737732  0.70685820  0.30990809     0.19000
H485        H  0.10979873  0.71308979  0.35324610     0.19000
H486        H  0.21176950  0.79291139  0.29698774     0.14800
C487        C  0.31494624  0.81471133  0.26291872     0.30300
C488        C  0.32671941  0.83385716  0.27942178    -0.36100
C489        C  0.34924300  0.84649737  0.26905784     0.16300
C490        C  0.35916233  0.84100977  0.24397777     0.22100
C491        C  0.34758429  0.82164563  0.22761252    -0.34200
C492        C  0.32532266  0.80870392  0.23814800     0.16200
O493        O  0.29369408  0.80061075  0.26855714    -0.26200
C494        C  0.29057045  0.78513320  0.24727155     0.06000
C495        C  0.30973371  0.78923186  0.22772447    -0.31100
O496        O  0.37979906  0.85582388  0.23787448    -0.22900
C497        C  0.38347938  0.87072063  0.25947073    -0.02900
C498        C  0.36510483  0.86569940  0.27960101    -0.17300
H499        H  0.31884825  0.83857800  0.29895428     0.20700
H500        H  0.35535454  0.81705284  0.20801833     0.19000
H501        H  0.31168933  0.77951293  0.20856592     0.19000
H502        H  0.36330358  0.87531710  0.29882663     0.14800
C503        C  0.83109923  0.95311324  0.45090481     0.30300
C504        C  0.84491132  0.97614667  0.45891255    -0.36100
C505        C  0.87251327  0.97420758  0.45840592     0.16300
C506        C  0.88552857  0.95108195  0.45098168     0.22100
C507        C  0.87177075  0.92822734  0.44293185    -0.34200
C508        C  0.84434313  0.93027620  0.44313525     0.16200
O509        O  0.80528442  0.95024770  0.44964314    -0.26200
C510        C  0.80207729  0.92529017  0.44067475     0.06000
C511        C  0.82581142  0.91198466  0.43654879    -0.31100
O512        O  0.91108790  0.95251500  0.45470011    -0.22900
C513        C  0.91480265  0.97714555  0.46396318    -0.02900
C514        C  0.89145661  0.99152818  0.46678660    -0.17300
H515        H  0.83488565  0.99413022  0.46543974     0.20700
H516        H  0.88175084  0.90989774  0.43744167     0.19000
H517        H  0.82903956  0.89173196  0.42960746     0.19000
H518        H  0.88862790  0.01080593  0.47625135     0.14800
C519        C  0.66675123  0.75110214  0.18747241     0.30300
C520        C  0.65131456  0.76791618  0.17130921    -0.36100
C521        C  0.63795905  0.75530742  0.15043771     0.16300
C522        C  0.63936043  0.72801396  0.14611504     0.22100
C523        C  0.65476271  0.71124896  0.16219767    -0.34200
C524        C  0.66840935  0.72387797  0.18273335     0.16200
O525        O  0.68183715  0.75868050  0.20735560    -0.26200
C526        C  0.69347325  0.73602757  0.21517218     0.06000
C527        C  0.68579852  0.71376402  0.20059702    -0.31100
O528        O  0.62520918  0.72037421  0.12567811    -0.22900
C529        C  0.61466978  0.74304984  0.11647907    -0.02900
C530        C  0.62202402  0.76550564  0.13111345    -0.17300
H531        H  0.65016370  0.78937035  0.17449083     0.20700
H532        H  0.65631840  0.68987262  0.15867305     0.19000
H533        H  0.69252556  0.69322979  0.20252100     0.19000
H534        H  0.61613879  0.78620880  0.12830845     0.14800
C535        C  0.82975700  0.62707296  0.24499406     0.30300
C536        C  0.81011215  0.63940526  0.22967421    -0.36100
C537        C  0.79499005  0.65898875  0.24273437     0.16300
C538        C  0.79914329  0.66610651  0.26893284     0.22100
C539        C  0.81842868  0.65346008  0.28433646    -0.34200
C540        C  0.83334134  0.63376790  0.27137137     0.16200
O541        O  0.84685101  0.60899825  0.23664280    -0.26200
C542        C  0.86134687  0.60381265  0.25807769     0.06000
C543        C  0.85373411  0.61868105  0.28026128    -0.31100
O544        O  0.78386015  0.68595327  0.27672960    -0.22900
C545        C  0.76945258  0.69146090  0.25538663    -0.02900
C546        C  0.77536227  0.67519388  0.23366237    -0.17300
H547        H  0.80714224  0.63443651  0.20894698     0.20700
H548        H  0.82189090  0.65894491  0.30484108     0.19000
H549        H  0.86246823  0.61903294  0.29984873     0.19000
H550        H  0.76707776  0.67590195  0.21386248     0.14800
C551        C  0.73250005  0.83971437  0.35496470     0.30300
C552        C  0.71612891  0.82875053  0.33542169    -0.36100
C553        C  0.72702774  0.80799181  0.32006394     0.16300
C554        C  0.75214011  0.79840859  0.32397991     0.22100
C555        C  0.76855336  0.80950193  0.34335033    -0.34200
C556        C  0.75779377  0.83049844  0.35840662     0.16200
O557        O  0.72635740  0.85918465  0.37163710    -0.26200
C558        C  0.74812635  0.86274939  0.38574962     0.06000
C559        C  0.76831913  0.84538963  0.37830327    -0.31100
O560        O  0.75810126  0.77839580  0.30794558    -0.22900
C561        C  0.73665198  0.77526900  0.29331303    -0.02900
C562        C  0.71670539  0.79322360  0.29987990    -0.17300
H563        H  0.69630821  0.83589017  0.33241118     0.20700
H564        H  0.78831759  0.80225557  0.34647551     0.19000
H565        H  0.78777594  0.84362415  0.38663279     0.19000
H566        H  0.69727597  0.79474647  0.29141616     0.14800
C567        C  0.87757832  0.01841759  0.56680438     0.30300
C568        C  0.85063509  0.01290447  0.56470110    -0.36100
C569        C  0.83362771  0.03449289  0.56964611     0.16300
C570        C  0.84261210  0.05953321  0.57676630     0.22100
C571        C  0.86945496  0.06497071  0.57917703    -0.34200
C572        C  0.88644297  0.04357749  0.57378085     0.16200
O573        O  0.89676667  0.00268229  0.55866300    -0.26200
C574        C  0.91816295  0.01782041  0.56062383     0.06000
C575        C  0.91290753  0.04346238  0.56993387    -0.31100
O576        O  0.82352215  0.07703838  0.57964812    -0.22900
C577        C  0.80187234  0.06326959  0.57411730    -0.02900
C578        C  0.80697440  0.03659399  0.56765248    -0.17300
H579        H  0.84351219  0.99357205  0.55810127     0.20700
H580        H  0.87662984  0.08491191  0.58362048     0.19000
H581        H  0.92609601  0.06051312  0.57034711     0.19000
H582        H  0.79313069  0.02097763  0.56262380     0.14800
C583        C  0.75956092  0.16316961  0.64215911     0.30300
C584        C  0.77458243  0.18253398  0.65513315    -0.36100
C585        C  0.76179562  0.19653116  0.67553578     0.16300
C586        C  0.73608895  0.19163240  0.68301194     0.22100
C587        C  0.72091981  0.17240816  0.66976819    -0.34200
C588        C  0.73365704  0.15858996  0.64905046     0.16200
O589        O  0.76798479  0.14711704  0.62322772    -0.26200
C590        C  0.74717998  0.13215737  0.61756510     0.06000
C591        C  0.72515847  0.13850282  0.63295514    -0.31100
O592        O  0.72850945  0.20652954  0.70335022    -0.22900
C593        C  0.74959409  0.22129931  0.70860085    -0.02900
C594        C  0.77080351  0.21598583  0.69187572    -0.17300
H595        H  0.79490784  0.18620210  0.64989555     0.20700
H596        H  0.70076321  0.16831654  0.67539135     0.19000
H597        H  0.70608119  0.12895797  0.63311163     0.19000
H598        H  0.79020252  0.22481301  0.69211386     0.14800
C599        C  0.69030959  0.23824514  0.82135774     0.30300
C600        C  0.67318393  0.22092091  0.83510856    -0.36100
C601        C  0.65944691  0.23214370  0.85662856     0.16300
C602        C  0.66222089  0.25862735  0.86400645     0.22100
C603        C  0.67982605  0.27580185  0.85064698    -0.34200
C604        C  0.69367416  0.26453754  0.82919129     0.16200
O605        O  0.70412247  0.23231628  0.79987421    -0.26200
C606        C  0.71673606  0.25499708  0.79406023     0.06000
C607        C  0.71112439  0.27571681  0.81167202    -0.31100
O608        O  0.64564611  0.26552740  0.88306838    -0.22900
C609        C  0.63226815  0.24309855  0.88821891    -0.02900
C610        C  0.64021896  0.22160437  0.87246449    -0.17300
H611        H  0.67019779  0.20036777  0.82896468     0.20700
H612        H  0.68194811  0.29668341  0.85605406     0.19000
H613        H  0.71839401  0.29612983  0.81123668     0.19000
H614        H  0.63186212  0.20167019  0.87149811     0.14800
C615        C  0.85650032  0.35779072  0.73833429     0.30300
C616        C  0.84419152  0.33764379  0.72356108    -0.36100
C617        C  0.82433523  0.32328799  0.73692987     0.16300
C618        C  0.81699684  0.32843547  0.76297471     0.22100
C619        C  0.82959871  0.34827288  0.77787364    -0.34200
C620        C  0.84953758  0.36253823  0.76454918     0.16200
O621        O  0.87490477  0.37431115  0.72953608    -0.26200
C622        C  0.88004830  0.38963421  0.75050457     0.06000
C623        C  0.86485287  0.38313345  0.77285615    -0.31100
O624        O  0.79731384  0.31322913  0.77118333    -0.22900
C625        C  0.79210835  0.29804996  0.75016003    -0.02900
C626        C  0.80837931  0.30332723  0.72832618    -0.17300
H627        H  0.84943629  0.33371982  0.70303177     0.20700
H628        H  0.82401736  0.35253303  0.79827072     0.19000
H629        H  0.86459611  0.39270225  0.79218075     0.19000
H630        H  0.80817798  0.29408777  0.70886139     0.14800
C631        C  0.32642417  0.23297233  0.18020584     0.30300
C632        C  0.34496130  0.21689058  0.16698279    -0.36100
C633        C  0.36113264  0.23004232  0.14825520     0.16300
C634        C  0.35937930  0.25719463  0.14295800     0.22100
C635        C  0.34072353  0.27328535  0.15608570    -0.34200
C636        C  0.32438428  0.26009009  0.17469367     0.16200
O637        O  0.30961312  0.22488690  0.19876315    -0.26200
C638        C  0.29646081  0.24707074  0.20513618     0.06000
C639        C  0.30474725  0.26955982  0.19069208    -0.31100
O640        O  0.37651326  0.26523383  0.12466070    -0.22900
C641        C  0.38931811  0.24288249  0.11793394    -0.02900
C642        C  0.38053720  0.22040161  0.13215773    -0.17300
H643        H  0.34667301  0.19555337  0.17103256     0.20700
H644        H  0.33904179  0.29465049  0.15204899     0.19000
H645        H  0.29764770  0.29002714  0.19215970     0.19000
H646        H  0.38743702  0.19987537  0.13099412     0.14800
C647        C  0.16508653  0.35779713  0.26736172     0.30300
C648        C  0.17346548  0.33371468  0.27924524    -0.36100
C649        C  0.19442640  0.32059337  0.26651932     0.16300
C650        C  0.20653294  0.33056698  0.24378428     0.22100
C651        C  0.19820824  0.35468179  0.23194051    -0.34200
C652        C  0.17704693  0.36764097  0.24449611     0.16200
O653        O  0.14490903  0.37257350  0.27505426    -0.26200
C654        C  0.14375676  0.39200992  0.25673080     0.06000
C655        C  0.16335236  0.38996329  0.23729390    -0.31100
O656        O  0.22510000  0.31448570  0.23466801    -0.22900
C657        C  0.22480501  0.29389906  0.25173906    -0.02900
C658        C  0.20615442  0.29665504  0.27198216    -0.17300
H659        H  0.16383113  0.32539377  0.29681570     0.20700
H660        H  0.20714546  0.36243006  0.21375151     0.19000
H661        H  0.16655822  0.40266965  0.21995195     0.19000
H662        H  0.20152943  0.28273050  0.28805098     0.14800
C663        C  0.16296968  0.04184089  0.43825308     0.30300
C664        C  0.13567668  0.04361027  0.43586357    -0.36100
C665        C  0.12114547  0.02299838  0.44797149     0.16300
C666        C  0.13252293  0.00198413  0.46173981     0.22100
C667        C  0.16003517  0.00026486  0.46427188    -0.34200
C668        C  0.17469528  0.02101439  0.45197776     0.16200
O669        O  0.18004639  0.05882180  0.42787454    -0.26200
C670        C  0.20333632  0.04908526  0.43490699     0.06000
C671        C  0.20118713  0.02550823  0.45013171    -0.31100
O672        O  0.11478184  0.98594182  0.47290943    -0.22900
C673        C  0.09187545  0.99690833  0.46599689    -0.02900
C674        C  0.09478000  0.01994172  0.45048533    -0.17300
H675        H  0.12636836  0.06010219  0.42538719     0.20700
H676        H  0.16931500  0.98412767  0.47531308     0.19000
H677        H  0.21674531  0.01301257  0.45798078     0.19000
H678        H  0.07962702  0.03355911  0.44366488     0.14800
C679        C  0.23725410  0.14457676  0.34720006     0.30300
C680        C  0.22556329  0.16818973  0.33743452    -0.36100
C681        C  0.23742398  0.17971994  0.31468528     0.16300
C682        C  0.25915646  0.16871782  0.30225824     0.22100
C683        C  0.27079840  0.14513820  0.31198907    -0.34200
C684        C  0.25909807  0.13377418  0.33482287     0.16200
O685        O  0.23020529  0.13100844  0.36886899    -0.26200
C686        C  0.24796697  0.11143001  0.37045408     0.06000
C687        C  0.26630510  0.11217686  0.34971229    -0.31100
O688        O  0.26760274  0.18332757  0.28185840    -0.22900
C689        C  0.25110749  0.20403656  0.28121980    -0.02900
C690        C  0.23191051  0.20280894  0.30115311    -0.17300
H691        H  0.20877735  0.17726680  0.34721636     0.20700
H692        H  0.28814170  0.13659268  0.30277938     0.19000
H693        H  0.28288444  0.09899117  0.34639114     0.19000
H694        H  0.21653951  0.21719983  0.30543698     0.14800
C695        C  0.98018940  0.45484908  0.87854761     0.30300
C696        C  0.95861310  0.44265177  0.86664156    -0.36100
C697        C  0.95679897  0.44560204  0.83898405     0.16300
C698        C  0.97486367  0.45951805  0.82368295     0.22100
C699        C  0.99672318  0.47183249  0.83569225    -0.34200
C700        C  0.99863609  0.46882843  0.86367083     0.16200
O701        O  0.98412597  0.45633883  0.90438109    -0.26200
C702        C  0.00563809  0.47116380  0.90651557     0.06000
C703        C  0.01567948  0.47951345  0.88178141    -0.31100
O704        O  0.96861990  0.45979669  0.79800351    -0.22900
C705        C  0.94628033  0.44575038  0.79706310    -0.02900
C706        C  0.93809238  0.43679621  0.82221807    -0.17300
H707        H  0.94384596  0.43214454  0.87826437     0.20700
H708        H  0.01088264  0.48334410  0.82418897     0.19000
H709        H  0.03164365  0.49337257  0.87788334     0.19000
H710        H  0.92071780  0.42566548  0.82778970     0.14800
C711        C  0.94375776  0.56723808  0.16735495     0.30300
C712        C  0.94284485  0.57475096  0.14032589    -0.36100
C713        C  0.96276563  0.56442936  0.12389237     0.16300
C714        C  0.98221616  0.54776317  0.13348685     0.22100
C715        C  0.98326728  0.54043991  0.16062266    -0.34200
C716        C  0.96326875  0.55076221  0.17705411     0.16200
O717        O  0.92638645  0.57367649  0.18579402    -0.26200
C718        C  0.93464414  0.56125513  0.20783382     0.06000
C719        C  0.95766453  0.54661209  0.20350979    -0.31100
O720        O  0.99675958  0.53763085  0.11417434    -0.22900
C721        C  0.98691693  0.54828319  0.09193415    -0.02900
C722        C  0.96563849  0.56507646  0.09677252    -0.17300
H723        H  0.92706480  0.58699880  0.13246245     0.20700
H724        H  0.99798178  0.52667077  0.16814886     0.19000
H725        H  0.96859802  0.53446837  0.21754450     0.19000
H726        H  0.95242619  0.57389660  0.08233047     0.14800
C727        C  0.05672418  0.44977187  0.11735338     0.30300
C728        C  0.07946393  0.44863115  0.13284660    -0.36100
C729        C  0.07564070  0.44655463  0.16048642     0.16300
C730        C  0.05114698  0.44580679  0.17238123     0.22100
C731        C  0.02824717  0.44691680  0.15678108    -0.34200
C732        C  0.03207917  0.44867927  0.12890318     0.16200
O733        O  0.05600662  0.45463560  0.09149048    -0.26200
C734        C  0.03055726  0.45603365  0.08588006     0.06000
C735        C  0.01471989  0.45246643  0.10849985    -0.31100
O736        O  0.05244730  0.44348615  0.19872949    -0.22900
C737        C  0.07816696  0.44259344  0.20359275    -0.02900
C738        C  0.09337419  0.44463894  0.18045147    -0.17300
H739        H  0.09887436  0.44986062  0.12396790     0.20700
H740        H  0.00883352  0.44673122  0.16573597     0.19000
H741        H  0.99375033  0.45570530  0.11021436     0.19000
H742        H  0.11455278  0.44406175  0.17855873     0.14800
C743        C  0.12661127  0.55474053  0.99820963     0.30300
C744        C  0.15316989  0.54694794  0.99728798    -0.36100
C745        C  0.16963918  0.55879466  0.01624125     0.16300
C746        C  0.16049028  0.57701870  0.03468423     0.22100
C747        C  0.13405310  0.58484728  0.03554724    -0.34200
C748        C  0.11763958  0.57308326  0.01666194     0.16200
O749        O  0.10734347  0.54413722  0.98438218    -0.26200
C750        C  0.08577390  0.55592362  0.99398636     0.06000
C751        C  0.09107193  0.57426962  0.01401887    -0.31100
O752        O  0.17884025  0.58488424  0.05118400    -0.22900
C753        C  0.20029789  0.57165151  0.04345364    -0.02900
C754        C  0.19567416  0.55501398  0.02164729    -0.17300
H755        H  0.16027089  0.53197040  0.98343113     0.20700
H756        H  0.12663140  0.59856100  0.05049861     0.19000
H757        H  0.07718759  0.58484527  0.02662108     0.19000
H758        H  0.20923044  0.54181255  0.01141939     0.14800
C759        C  0.84748936  0.42765007  0.02671613     0.30300
C760        C  0.87406902  0.42025941  0.02680942    -0.36100
C761        C  0.89077387  0.43516059  0.01003721     0.16300
C762        C  0.88188796  0.45585171  0.99405183     0.22100
C763        C  0.85508694  0.46288681  0.99352588    -0.34200
C764        C  0.83838076  0.44815377  0.01067183     0.16200
O765        O  0.82903894  0.41746815  0.04225683    -0.26200
C766        C  0.80752098  0.43147818  0.03638145     0.06000
C767        C  0.81221118  0.45094531  0.01666220    -0.31100
O768        O  0.90136224  0.46930851  0.98269493    -0.22900
C769        C  0.92298572  0.45703296  0.99143672    -0.02900
C770        C  0.91749889  0.43544369  0.00830253    -0.17300
H771        H  0.88142099  0.40477565  0.04004956     0.20700
H772        H  0.84798852  0.47947382  0.98156087     0.19000
H773        H  0.79867257  0.46543328  0.00836214     0.19000
H774        H  0.93120158  0.42359024  0.01986838     0.14800
C775        C  0.98553614  0.11294658  0.43963796     0.30300
C776        C  0.96940527  0.12598972  0.42103815    -0.36100
C777        C  0.96426334  0.15326471  0.42568417     0.16300
C778        C  0.97420222  0.16696562  0.44713338     0.22100
C779        C  0.99051886  0.15392949  0.46575496    -0.34200
C780        C  0.99584718  0.12657900  0.46100162     0.16200
O781        O  0.99101942  0.08701247  0.44024405    -0.26200
C782        C  0.00549078  0.08385440  0.46204239     0.06000
C783        C  0.00921264  0.10789141  0.47568893    -0.31100
O784        O  0.96634929  0.19234375  0.44768593    -0.22900
C785        C  0.95103939  0.19493822  0.42630282    -0.02900
C786        C  0.94925358  0.17108977  0.41191477    -0.17300
H787        H  0.96092209  0.11543451  0.40441832     0.20700
H788        H  0.99815687  0.16422657  0.48294563     0.19000
H789        H  0.01842803  0.11072067  0.49483726     0.19000
H790        H  0.93870490  0.16718568  0.39372275     0.14800
C791        C  0.69310184  0.18175211  0.25513407     0.30300
C792        C  0.68027440  0.16293620  0.27157548    -0.36100
C793        C  0.65917206  0.14936630  0.26009710     0.16300
C794        C  0.65143025  0.15378000  0.23412035     0.22100
C795        C  0.66408643  0.17279296  0.21773414    -0.34200
C796        C  0.68502211  0.18659077  0.22931676     0.16200
O797        O  0.71355286  0.19636542  0.26168737    -0.26200
C798        C  0.71850650  0.21095359  0.23990032     0.06000
C799        C  0.70132787  0.20581570  0.21912270    -0.31100
O800        O  0.63187405  0.13812572  0.22718372    -0.22900
C801        C  0.62678530  0.12367123  0.24907415    -0.02900
C802        C  0.64316058  0.12989254  0.27023651    -0.17300
H803        H  0.68645134  0.15901670  0.29187286     0.20700
H804        H  0.65814665  0.17641754  0.19730994     0.19000
H805        H  0.70116738  0.21465132  0.19931230     0.19000
H806        H  0.64379406  0.12080627  0.28991496     0.14800
C807        C  0.75051708  0.31008638  0.16345264     0.30300
C808        C  0.73670296  0.32053872  0.14159804    -0.36100
C809        C  0.74803758  0.34284664  0.12873655     0.16300
C810        C  0.77157320  0.35387258  0.13652822     0.22100
C811        C  0.78538216  0.34344705  0.15845888    -0.34200
C812        C  0.77386470  0.32131113  0.17155162     0.16200
O813        O  0.74323598  0.28959317  0.17857847    -0.26200
C814        C  0.76209861  0.28763360  0.19670937     0.06000
C815        C  0.78168452  0.30689188  0.19334628    -0.31100
O816        O  0.77855157  0.37464063  0.12156073    -0.22900
C817        C  0.75902935  0.37720065  0.10418930    -0.02900
C818        C  0.73951122  0.35791972  0.10773877    -0.17300
H819        H  0.71827922  0.31204655  0.13524643     0.20700
H820        H  0.80366657  0.35210246  0.16497128     0.19000
H821        H  0.79904088  0.30986708  0.20525775     0.19000
H822        H  0.72175900  0.35528770  0.09636498     0.14800
C823        C  0.83201904  0.25663116  0.30033881     0.30300
C824        C  0.85317069  0.27033169  0.31166987    -0.36100
C825        C  0.86479903  0.25795089  0.33383738     0.16300
C826        C  0.85649740  0.23354855  0.34401444     0.22100
C827        C  0.83521891  0.21988127  0.33275906    -0.34200
C828        C  0.82336825  0.23243335  0.31074384     0.16200
O829        O  0.81803212  0.26481933  0.27978258    -0.26200
C830        C  0.80002610  0.24572990  0.27705014     0.06000
C831        C  0.80239963  0.22507372  0.29578047    -0.31100
O832        O  0.87043148  0.22561984  0.36474791    -0.22900
C833        C  0.88769568  0.24537737  0.36808869    -0.02900
C834        C  0.88502519  0.26600683  0.34938035    -0.17300
H835        H  0.85996652  0.28948083  0.30386387     0.20700
H836        H  0.82825892  0.20084932  0.34073440     0.19000
H837        H  0.79032072  0.20728986  0.29809801     0.19000
H838        H  0.89652505  0.28420276  0.34732369     0.14800
C839        C  0.00532303  0.55375888  0.86999425     0.30300
C840        C  0.00496332  0.54769712  0.84255579    -0.36100
C841        C  0.02676359  0.55656885  0.82741479     0.16300
C842        C  0.04723512  0.57051514  0.83858620     0.22100
C843        C  0.04751398  0.57669642  0.86576752    -0.34200
C844        C  0.02590926  0.56785496  0.88080856     0.16200
O845        O  0.98887887  0.54462449  0.88851973    -0.26200
C846        C  0.99909869  0.55313488  0.91138359     0.06000
C847        C  0.02201541  0.56786038  0.90762127    -0.31100
O848        O  0.06595410  0.57628601  0.82128694    -0.22900
C849        C  0.05770766  0.56597590  0.79842379    -0.02900
C850        C  0.03329190  0.55335148  0.80106325    -0.17300
H851        H  0.98939773  0.53598900  0.83388698     0.20700
H852        H  0.06390314  0.58690406  0.87474453     0.19000
H853        H  0.03544414  0.57489180  0.92266021     0.19000
H854        H  0.02191549  0.54339030  0.78594253     0.14800
C855        C  0.13224584  0.99889450  0.55589307     0.30300
C856        C  0.15965737  0.00122151  0.55251622    -0.36100
C857        C  0.17491090  0.98033648  0.56349322     0.16300
C858        C  0.16387888  0.95889680  0.57704615     0.22100
C859        C  0.13665637  0.95664118  0.58051667    -0.34200
C860        C  0.12148208  0.97729703  0.56945387     0.16200
O861        O  0.11409363  0.01440875  0.54494508    -0.26200
C862        C  0.09148055  0.00254104  0.55166884     0.06000
C863        C  0.09501722  0.97945920  0.56700362    -0.31100
O864        O  0.18145289  0.94132246  0.58517468    -0.22900
C865        C  0.20430700  0.95131296  0.57672690    -0.02900
C866        C  0.20140128  0.97567630  0.56301780    -0.17300
H867        H  0.16841499  0.01764043  0.54127184     0.20700
H868        H  0.12783804  0.93945728  0.59047530     0.19000
H869        H  0.08029645  0.96504347  0.57340594     0.19000
H870        H  0.21649533  0.98824564  0.55413895     0.14800
C871        C  0.15792442  0.64050471  0.73673153     0.30300
C872        C  0.17153888  0.65938968  0.72102478    -0.36100
C873        C  0.19154269  0.67352065  0.73383070     0.16300
C874        C  0.19794563  0.66918521  0.76022209     0.22100
C875        C  0.18411889  0.65050205  0.77602654    -0.34200
C876        C  0.16391090  0.63656260  0.76327163     0.16200
O877        O  0.13855812  0.62504217  0.72877730    -0.26200
C878        C  0.13177678  0.61116451  0.75055954     0.06000
C879        C  0.14690484  0.61757232  0.77266517    -0.31100
O880        O  0.21750116  0.68451224  0.76803929    -0.22900
C881        C  0.22351254  0.69900591  0.74643083    -0.02900
C882        C  0.20794589  0.69308504  0.72458840    -0.17300
H883        H  0.16680884  0.66287366  0.70023823     0.20700
H884        H  0.18874385  0.64712780  0.79684164     0.19000
H885        H  0.14576899  0.60924898  0.79264656     0.19000
H886        H  0.20863890  0.70194791  0.70478411     0.14800
C887        C  0.27036515  0.81651457  0.68752189     0.30300
C888        C  0.28171512  0.84087118  0.67930349    -0.36100
C889        C  0.26823396  0.85507682  0.65943141     0.16300
C890        C  0.24515253  0.84605455  0.64839403     0.22100
C891        C  0.23400403  0.82149829  0.65634832    -0.34200
C892        C  0.24751830  0.80724107  0.67619100     0.16200
O893        O  0.27899859  0.80055841  0.70664331    -0.26200
C894        C  0.26151075  0.78074085  0.70748768     0.06000
C895        C  0.24161889  0.78373168  0.68883363    -0.31100
O896        O  0.23603255  0.86252243  0.62992023    -0.22900
C897        C  0.25363395  0.88222839  0.62900481    -0.02900
C898        C  0.27406251  0.87864727  0.64696145    -0.17300
H899        H  0.29964687  0.84832346  0.68793739     0.20700
H900        H  0.21600747  0.81410297  0.64778720     0.19000
H901        H  0.22475677  0.77094404  0.68573526     0.19000
H902        H  0.29103355  0.89130028  0.64991707     0.14800
C903        C  0.32939433  0.75443254  0.81318175     0.30300
C904        C  0.34793600  0.77017132  0.82650691    -0.36100
C905        C  0.36244866  0.75702682  0.84639671     0.16300
C906        C  0.35913514  0.73018655  0.85257560     0.22100
C907        C  0.34030757  0.71457883  0.83956939    -0.34200
C908        C  0.32564945  0.72776101  0.81986565     0.16200
O909        O  0.31414321  0.76236848  0.79346654    -0.26200
C910        C  0.30025881  0.74055713  0.78768319     0.06000
C911        C  0.30651446  0.71847961  0.80355545    -0.31100
O912        O  0.37546278  0.72173160  0.87112711    -0.22900
C913        C  0.38927473  0.74349801  0.87722495    -0.02900
C914        C  0.38191730  0.76608447  0.86246470    -0.17300
H915        H  0.35102667  0.79117215  0.82152097     0.20700
H916        H  0.33746658  0.69349951  0.84430265     0.19000
H917        H  0.29845982  0.69837761  0.80281099     0.19000
H918        H  0.39014786  0.78613004  0.86301317     0.14800
C919        C  0.56890984  0.87420220  0.00439214     0.30300
C920        C  0.58537049  0.85936767  0.02121346    -0.36100
C921        C  0.57914434  0.83211734  0.02463170     0.16300
C922        C  0.55824539  0.81992418  0.01238211     0.22100
C923        C  0.54215018  0.83462012  0.99479418    -0.34200
C924        C  0.54833705  0.86206602  0.99140060     0.16200
O925        O  0.56885512  0.90062927  0.00170634    -0.26200
C926        C  0.54817721  0.90568639  0.98644011     0.06000
C927        C  0.53489653  0.88234563  0.97915546    -0.31100
O928        O  0.55472034  0.79477888  0.02070189    -0.22900
C929        C  0.57371080  0.79084175  0.03857361    -0.02900
C930        C  0.58957455  0.81354430  0.04131333    -0.17300
H931        H  0.60102587  0.86880096  0.03222515     0.20700
H932        H  0.52521924  0.82567237  0.98549834     0.19000
H933        H  0.51629288  0.88083557  0.96898398     0.19000
H934        H  0.60612169  0.81676423  0.05435611     0.14800
C935        C  0.43507190  0.83106993  0.95900629     0.30300
C936        C  0.42793681  0.85828917  0.95984887    -0.36100
C937        C  0.44057121  0.87395178  0.97900106     0.16300
C938        C  0.45903253  0.86355912  0.99619274     0.22100
C939        C  0.46590500  0.83614162  0.99559561    -0.34200
C940        C  0.45332322  0.82045740  0.97626098     0.16200
O941        O  0.42660722  0.81334397  0.94171686    -0.26200
C942        C  0.43949939  0.79079647  0.94768714     0.06000
C943        C  0.45647285  0.79410197  0.96919140    -0.31100
O944        O  0.47084478  0.88248417  0.01001109    -0.22900
C945        C  0.45970391  0.90530879  0.00172453    -0.02900
C946        C  0.44051161  0.90106712  0.98260199    -0.17300
H947        H  0.41424764  0.86690499  0.94576814     0.20700
H948        H  0.48085520  0.82789632  0.00849352     0.19000
H949        H  0.46948559  0.77950293  0.97815412     0.19000
H950        H  0.43025079  0.91599361  0.97082162     0.14800
C951        C  0.55992414  0.01343603  0.12297110     0.30300
C952        C  0.55881848  0.00825445  0.15057870    -0.36100
C953        C  0.56587620  0.02959305  0.16719644     0.16300
C954        C  0.57378077  0.05418419  0.15721059     0.22100
C955        C  0.57476530  0.05942283  0.12965914    -0.34200
C956        C  0.56751496  0.03817947  0.11306950     0.16200
O957        O  0.55135288  0.99742064  0.10412384    -0.26200
C958        C  0.55372865  0.01184841  0.08175876     0.06000
C959        C  0.56348564  0.03750317  0.08620126    -0.31100
O960        O  0.57953632  0.07127247  0.17617960    -0.22900
C961        C  0.57508070  0.05769886  0.19878382    -0.02900
C962        C  0.56638062  0.03158320  0.19440104    -0.17300
H963        H  0.55204430  0.98917262  0.15855622     0.20700
H964        H  0.58017145  0.07899215  0.12172907     0.19000
H965        H  0.56466380  0.05413013  0.07217014     0.19000
H966        H  0.56178554  0.01615371  0.20901106     0.14800
C967        C  0.46730095  0.96817059  0.13372311     0.30300
C968        C  0.47666786  0.96462581  0.15972359    -0.36100
C969        C  0.45805396  0.95692118  0.17895741     0.16300
C970        C  0.43198461  0.95293399  0.17297233     0.22100
C971        C  0.42241879  0.95735921  0.14700320    -0.34200
C972        C  0.44110858  0.96512221  0.12764887     0.16200
O973        O  0.48190685  0.97266761  0.11249103    -0.26200
C974        C  0.46503877  0.97296903  0.09239413     0.06000
C975        C  0.43917320  0.96868120  0.10053836    -0.31100
O976        O  0.41877587  0.94241561  0.19322807    -0.22900
C977        C  0.43652421  0.93985586  0.21252916    -0.02900
C978        C  0.46128722  0.94892772  0.20478353    -0.17300
H979        H  0.49729674  0.96638450  0.16431873     0.20700
H980        H  0.40213818  0.95363472  0.14197356     0.19000
H981        H  0.42191160  0.96688060  0.08824408     0.19000
H982        H  0.47946751  0.94764792  0.21569695     0.14800
C983        C  0.45530130  0.11690170  0.00182584     0.30300
C984        C  0.46265263  0.14422017  0.00094502    -0.36100
C985        C  0.45166420  0.16080766  0.02078881     0.16300
C986        C  0.43460542  0.15106634  0.03999606     0.22100
C987        C  0.42714340  0.12391114  0.04077380    -0.34200
C988        C  0.43807412  0.10738742  0.02102817     0.16200
O989        O  0.46523069  0.09738166  0.98707858    -0.26200
C990        C  0.45410188  0.07505264  0.99681130     0.06000
C991        C  0.43687812  0.08020492  0.01788487    -0.31100
O992        O  0.42711882  0.16967484  0.05699093    -0.22900
C993        C  0.43940208  0.19197407  0.04884930    -0.02900
C994        C  0.45508372  0.18755671  0.02626290    -0.17300
H995        H  0.47662981  0.15179568  0.98638826     0.20700
H996        H  0.41422295  0.11604879  0.05621170     0.19000
H997        H  0.42691787  0.06578986  0.03068186     0.19000
H998        H  0.46714547  0.20180792  0.01537526     0.14800
C999        C  0.55987916  0.10618649  0.97364821     0.30300
C1000       C  0.57120127  0.12015322  0.95220186    -0.36100
C1001       C  0.56879537  0.14810733  0.95272938     0.16300
C1002       C  0.55631458  0.16181534  0.97298226     0.22100
C1003       C  0.54468841  0.14773691  0.99456105    -0.34200
C1004       C  0.54700128  0.11948137  0.99398735     0.16200
O1005       O  0.55793682  0.07988226  0.97560110    -0.26200
C1006       C  0.54358789  0.07587202  0.99749740     0.06000
C1007       C  0.53631265  0.09985356  0.00990814    -0.31100
O1008       O  0.55700448  0.18823106  0.96919792    -0.22900
C1009       C  0.57018733  0.19123604  0.94620092    -0.02900
C1010       C  0.57749484  0.16675973  0.93505996    -0.17300
H1011       H  0.58074703  0.10985313  0.93584176     0.20700
H1012       H  0.53422814  0.15798730  0.01037817     0.19000
H1013       H  0.52303134  0.10248187  0.02667234     0.19000
H1014       H  0.58804265  0.16302745  0.91662988     0.14800
C1015       C  0.00126241  0.12294187  0.55943388     0.30300
C1016       C  0.00116708  0.15064573  0.55350359    -0.36100
C1017       C  0.01979162  0.16627370  0.56692359     0.16300
C1018       C  0.03687918  0.15529287  0.58517319     0.22100
C1019       C  0.03660585  0.12784205  0.59150213    -0.34200
C1020       C  0.01834411  0.11220936  0.57788331     0.16200
O1021       O  0.98888847  0.10416357  0.54602815    -0.26200
C1022       C  0.99816731  0.08114658  0.55595462     0.06000
C1023       C  0.01630311  0.08500022  0.57613529    -0.31100
O1024       O  0.05400351  0.17279749  0.59386683    -0.22900
C1025       C  0.04813635  0.19557578  0.58117241    -0.02900
C1026       C  0.02679367  0.19272184  0.56409209    -0.17300
H1027       H  0.98868924  0.15908300  0.53819339     0.20700
H1028       H  0.05082019  0.11901281  0.60491136     0.19000
H1029       H  0.02861457  0.07007999  0.58566232     0.19000
H1030       H  0.01817068  0.20755123  0.55092765     0.14800
C1031       C  0.44923440  0.01676409  0.82347950     0.30300
C1032       C  0.45699744  0.99302680  0.83685157    -0.36100
C1033       C  0.45568875  0.99361888  0.86501755     0.16300
C1034       C  0.44738423  0.01603189  0.87877932     0.22100
C1035       C  0.43992219  0.03952134  0.86555846    -0.34200
C1036       C  0.44127125  0.03891052  0.83776757     0.16200
O1037       O  0.44826779  0.02105092  0.79730389    -0.26200
C1038       C  0.43952438  0.04629560  0.79516364     0.06000
C1039       C  0.43534611  0.05825025  0.81984960    -0.31100
O1040       O  0.44935986  0.01332942  0.90476505    -0.22900
C1041       C  0.45893225  0.98877287  0.90817652    -0.02900
C1042       C  0.46324991  0.97540885  0.88411004    -0.17300
H1043       H  0.46382230  0.97552106  0.82614318     0.20700
H1044       H  0.43387490  0.05731229  0.87628224     0.19000
H1045       H  0.42850495  0.07834975  0.82417558     0.19000
H1046       H  0.47269770  0.95618355  0.88106859     0.14800
C1047       C  0.15932129  0.42718435  0.96031848     0.30300
C1048       C  0.13208642  0.42290418  0.95990760    -0.36100
C1049       C  0.11698129  0.43853834  0.97743248     0.16300
C1050       C  0.12791522  0.45713817  0.99429457     0.22100
C1051       C  0.15527329  0.46125881  0.99486378    -0.34200
C1052       C  0.17041012  0.44564733  0.97718138     0.16200
O1053       O  0.17684054  0.41530846  0.94492181    -0.26200
C1054       C  0.19971906  0.42615897  0.95177456     0.06000
C1055       C  0.19682757  0.44527836  0.97187795    -0.31100
O1056       O  0.10991050  0.47145107  0.00695474    -0.22900
C1057       C  0.08712709  0.46185845  0.99816735    -0.02900
C1058       C  0.09041943  0.44119699  0.97987806    -0.17300
H1059       H  0.12320692  0.40892161  0.94623259     0.20700
H1060       H  0.16404496  0.47629383  0.00749686     0.19000
H1061       H  0.21183752  0.45720987  0.98129511     0.19000
H1062       H  0.07549064  0.43127586  0.96828548     0.14800
C1063       C  0.14516517  0.25083224  0.66064910     0.30300
C1064       C  0.15695688  0.26461421  0.68158602    -0.36100
C1065       C  0.17813537  0.25162860  0.69365396     0.16300
C1066       C  0.18735988  0.22689349  0.68552256     0.22100
C1067       C  0.17543657  0.21299438  0.66461734    -0.34200
C1068       C  0.15394726  0.22584797  0.65276700     0.16200
O1069       O  0.12511748  0.25936264  0.64659824    -0.26200
C1070       C  0.12071500  0.23947220  0.62970258     0.06000
C1071       C  0.13797535  0.21800448  0.63264951    -0.31100
O1072       O  0.20724989  0.21841457  0.69997459    -0.22900
C1073       C  0.21052170  0.23789528  0.71766286    -0.02900
C1074       C  0.19301442  0.25905667  0.71464312    -0.17300
H1075       H  0.14994716  0.28405148  0.68816172     0.20700
H1076       H  0.18225009  0.19342295  0.65824328     0.19000
H1077       H  0.13889545  0.19958869  0.62128742     0.19000
H1078       H  0.19131362  0.27713780  0.72644295     0.14800
C1079       C  0.32235980  0.17495855  0.76589217     0.30300
C1080       C  0.34440529  0.16431770  0.77876954    -0.36100
C1081       C  0.35854188  0.14488024  0.76453468     0.16300
C1082       C  0.35166418  0.13666140  0.73929042     0.22100
C1083       C  0.32952811  0.14715601  0.72651217    -0.34200
C1084       C  0.31526006  0.16639975  0.74082631     0.16200
O1085       O  0.30647155  0.19360046  0.77530160    -0.26200
C1086       C  0.28892932  0.19687020  0.75603953     0.06000
C1087       C  0.29335223  0.18038570  0.73418397    -0.31100
O1088       O  0.36761326  0.11817596  0.72972263    -0.22900
C1089       C  0.38474024  0.11425247  0.74923254    -0.02900
C1090       C  0.38010045  0.13040122  0.77134780    -0.17300
H1091       H  0.35009522  0.17068873  0.79848348     0.20700
H1092       H  0.32379109  0.14071822  0.70683235     0.19000
H1093       H  0.28229924  0.17924570  0.71588436     0.19000
H1094       H  0.39096166  0.13122527  0.78978815     0.14800
C1095       C  0.23380654  0.33768066  0.86034097     0.30300
C1096       C  0.21966111  0.32572956  0.83968486    -0.36100
C1097       C  0.23231157  0.30456221  0.82645374     0.16300
C1098       C  0.25706226  0.29560404  0.83318619     0.22100
C1099       C  0.27119980  0.30757199  0.85378221    -0.34200
C1100       C  0.25863428  0.32884397  0.86685375     0.16200
O1101       O  0.22615219  0.35830122  0.87486547    -0.26200
C1102       C  0.24645703  0.36286728  0.89074753     0.06000
C1103       C  0.26714821  0.34498998  0.88666382    -0.31100
O1104       O  0.26534574  0.27590411  0.81783278    -0.22900
C1105       C  0.24569753  0.27230460  0.80095338    -0.02900
C1106       C  0.22462482  0.28955386  0.80537251    -0.17300
H1107       H  0.20036047  0.33270027  0.83405652     0.20700
H1108       H  0.29076780  0.30104682  0.85896895     0.19000
H1109       H  0.28588105  0.34409267  0.89664398     0.19000
H1110       H  0.20646769  0.29104934  0.79438508     0.14800
C1111       C  0.84549716  0.56572833  0.96324568     0.30300
C1112       C  0.87149668  0.57504535  0.96357190    -0.36100
C1113       C  0.88792645  0.56344205  0.98275840     0.16300
C1114       C  0.87933180  0.54392564  0.00040990     0.22100
C1115       C  0.85316504  0.53477634  0.00023273    -0.34200
C1116       C  0.83671736  0.54631504  0.98087801     0.16200
O1117       O  0.82711994  0.57372193  0.94671461    -0.26200
C1118       C  0.80597840  0.55939344  0.95358310     0.06000
C1119       C  0.81090965  0.54176268  0.97477748    -0.31100
O1120       O  0.89871608  0.53359851  0.01447151    -0.22900
C1121       C  0.92004576  0.54669817  0.00585937    -0.02900
C1122       C  0.91436455  0.56576523  0.98628514    -0.17300
H1123       H  0.87861553  0.58985008  0.94930664     0.20700
H1124       H  0.84634194  0.51911395  0.01370620     0.19000
H1125       H  0.79751842  0.52789992  0.98454327     0.19000
H1126       H  0.92806792  0.57733658  0.97423600     0.14800
C1127       C  0.97844093  0.82873017  0.56542760     0.30300
C1128       C  0.99734972  0.84224836  0.54967027    -0.36100
C1129       C  0.00069626  0.86979965  0.55494436     0.16300
C1130       C  0.98628761  0.88308050  0.57420720     0.22100
C1131       C  0.96754621  0.86959839  0.58987766    -0.34200
C1132       C  0.96431405  0.84220783  0.58467960     0.16200
O1133       O  0.97156673  0.80313557  0.56378972    -0.26200
C1134       C  0.95273984  0.80021077  0.58230866     0.06000
C1135       C  0.94754976  0.82412703  0.59577725    -0.31100
O1136       O  0.99057873  0.90918990  0.57414835    -0.22900
C1137       C  0.00820310  0.91291383  0.55475745    -0.02900
C1138       C  0.01536348  0.88902457  0.54220742    -0.17300
H1139       H  0.00822928  0.83219030  0.53403229     0.20700
H1140       H  0.95572859  0.87993858  0.60461690     0.19000
H1141       H  0.93348545  0.82817246  0.61148252     0.19000
H1142       H  0.02761479  0.88656441  0.52465143     0.14800
C1143       C  0.74205512  0.64526424  0.86475533     0.30300
C1144       C  0.72717280  0.66616874  0.85349430    -0.36100
C1145       C  0.73885328  0.67986670  0.83187055     0.16300
C1146       C  0.76337952  0.67331678  0.82195261     0.22100
C1147       C  0.77835915  0.65272148  0.83342826    -0.34200
C1148       C  0.76679642  0.63920739  0.85511862     0.16200
O1149       O  0.73478656  0.62928118  0.88461018    -0.26200
C1150       C  0.75532048  0.61304262  0.88791770     0.06000
C1151       C  0.77580402  0.61839906  0.87013659    -0.31100
O1152       O  0.77031620  0.68827274  0.80128850    -0.22900
C1153       C  0.75007783  0.70479952  0.79796715    -0.02900
C1154       C  0.72992915  0.70056714  0.81647322    -0.17300
H1155       H  0.70779956  0.67123485  0.86090352     0.20700
H1156       H  0.79763194  0.64747328  0.82584827     0.19000
H1157       H  0.79437569  0.60799679  0.86811925     0.19000
H1158       H  0.71138797  0.71106908  0.81817309     0.14800
C1159       C  0.85388166  0.75967179  0.65794684     0.30300
C1160       C  0.83292503  0.77400781  0.66929717    -0.36100
C1161       C  0.81769147  0.76003015  0.68822750     0.16300
C1162       C  0.82294873  0.73388149  0.69581977     0.22100
C1163       C  0.84380906  0.71949519  0.68434675    -0.34200
C1164       C  0.85881217  0.73335714  0.66513635     0.16200
O1165       O  0.87030049  0.76862156  0.63945697    -0.26200
C1166       C  0.88578231  0.74766625  0.63444983     0.06000
C1167       C  0.87955584  0.72519246  0.64996055    -0.31100
O1168       O  0.80653979  0.72494853  0.71433989    -0.22900
C1169       C  0.79040449  0.74556020  0.71844694    -0.02900
C1170       C  0.79632137  0.76786651  0.70265248    -0.17300
H1171       H  0.82867462  0.79458821  0.66361792     0.20700
H1172       H  0.84796709  0.69887625  0.68990740     0.19000
H1173       H  0.88888733  0.70565855  0.65000962     0.19000
H1174       H  0.78660771  0.78721831  0.70228971     0.14800
C1175       C  0.54012934  0.98929771  0.86337242     0.30300
C1176       C  0.53471798  0.98907971  0.83579270    -0.36100
C1177       C  0.54793912  0.96941659  0.82063125     0.16300
C1178       C  0.56525937  0.95145812  0.83194106     0.22100
C1179       C  0.57059791  0.95163819  0.85930823    -0.34200
C1180       C  0.55740777  0.97107013  0.87437030     0.16200
O1181       O  0.52853324  0.00430597  0.88174816    -0.26200
C1182       C  0.53862856  0.99551261  0.90471462     0.06000
C1183       C  0.55661463  0.97481454  0.90119893    -0.31100
O1184       O  0.57495207  0.93433674  0.81459395    -0.22900
C1185       C  0.56382367  0.94103386  0.79153720    -0.02900
C1186       C  0.54672043  0.96289086  0.79411768    -0.17300
H1187       H  0.52066031  0.00269708  0.82695830     0.20700
H1188       H  0.58363799  0.93712253  0.86835966     0.19000
H1189       H  0.56621824  0.96290100  0.91640154     0.19000
H1190       H  0.53499208  0.97249595  0.77892219     0.14800
C1191       C  0.64341452  0.84217219  0.76232428     0.30300
C1192       C  0.65577782  0.82303461  0.77862970    -0.36100
C1193       C  0.67719959  0.80953323  0.76717091     0.16300
C1194       C  0.68609825  0.81480536  0.74157129     0.22100
C1195       C  0.67368406  0.83384166  0.72525027    -0.34200
C1196       C  0.65201638  0.84700342  0.73655195     0.16200
O1197       O  0.62295339  0.85704970  0.76888258    -0.26200
C1198       C  0.61815523  0.87133054  0.74688926     0.06000
C1199       C  0.63564514  0.86584949  0.72614012    -0.31100
O1200       O  0.70631059  0.79972778  0.73481140    -0.22900
C1201       C  0.71025337  0.78439328  0.75624307    -0.02900
C1202       C  0.69274120  0.78959634  0.77701211    -0.17300
H1203       H  0.64899393  0.81877387  0.79878386     0.20700
H1204       H  0.68029138  0.83789214  0.70499009     0.19000
H1205       H  0.63645959  0.87479780  0.70638186     0.19000
H1206       H  0.69157177  0.77997755  0.79643823     0.14800
C1207       C  0.46468572  0.33378113  0.06634755     0.30300
C1208       C  0.46394680  0.36119440  0.07279053    -0.36100
C1209       C  0.48285145  0.37759406  0.06032228     0.16300
C1210       C  0.50120627  0.36771931  0.04256755     0.22100
C1211       C  0.50197088  0.34017781  0.03612618    -0.34200
C1212       C  0.48298106  0.32370717  0.04866769     0.16200
O1213       O  0.44861406  0.31515732  0.07564268    -0.26200
C1214       C  0.45641748  0.29251019  0.06391613     0.06000
C1215       C  0.47784299  0.29671855  0.04673699    -0.31100
O1216       O  0.51550065  0.38703585  0.03150359    -0.22900
C1217       C  0.50632831  0.40961604  0.04241333    -0.02900
C1218       C  0.48604879  0.40482725  0.06062443    -0.17300
H1219       H  0.44926967  0.36927410  0.08626363     0.20700
H1220       H  0.51602198  0.33227331  0.02190614     0.19000
H1221       H  0.48825784  0.28216398  0.03470812     0.19000
H1222       H  0.47386004  0.41944881  0.07076367     0.14800
C1223       C  0.52303028  0.37437391  0.93364141     0.30300
C1224       C  0.54151788  0.36028376  0.91837317    -0.36100
C1225       C  0.54420412  0.33288720  0.92432979     0.16300
C1226       C  0.52979247  0.31991659  0.94388867     0.22100
C1227       C  0.51081079  0.33394333  0.95890163    -0.34200
C1228       C  0.50808276  0.36152674  0.95295270     0.16200
O1229       O  0.51978975  0.40067571  0.93354823    -0.26200
C1230       C  0.50221449  0.40495919  0.95281134     0.06000
C1231       C  0.49406565  0.38122697  0.96541089    -0.31100
O1232       O  0.53706411  0.29452281  0.94712361    -0.22900
C1233       C  0.55647617  0.29125501  0.92935829    -0.02900
C1234       C  0.56136227  0.31462209  0.91451389    -0.17300
H1235       H  0.55385980  0.37025264  0.90372660     0.20700
H1236       H  0.49969053  0.32430793  0.97476084     0.19000
H1237       H  0.48175661  0.37910495  0.98303225     0.19000
H1238       H  0.57570566  0.31829025  0.89894309     0.14800
C1239       C  0.66823679  0.45131296  0.05212231     0.30300
C1240       C  0.64109044  0.44805125  0.05562161    -0.36100
C1241       C  0.62526993  0.46925671  0.04669533     0.16300
C1242       C  0.63534719  0.49225321  0.03504809     0.22100
C1243       C  0.66268494  0.49560968  0.03171485    -0.34200
C1244       C  0.67860520  0.47417548  0.04051090     0.16200
O1245       O  0.68637495  0.43374715  0.05890694    -0.26200
C1246       C  0.70896593  0.44515581  0.05151517     0.06000
C1247       C  0.70528504  0.47042599  0.03976648    -0.31100
O1248       O  0.61667300  0.50835341  0.02594218    -0.22900
C1249       C  0.59439543  0.49550686  0.03204412    -0.02900
C1250       C  0.59870007  0.47116173  0.04508628    -0.17300
H1251       H  0.63280839  0.42987395  0.06421393     0.20700
H1252       H  0.67091648  0.51328611  0.02210679     0.19000
H1253       H  0.72003141  0.48425856  0.03230143     0.19000
H1254       H  0.58437722  0.45596204  0.05051526     0.14800
C1255       C  0.66945210  0.52827703  0.93091861     0.30300
C1256       C  0.64331705  0.52722257  0.92241857    -0.36100
C1257       C  0.62736872  0.50783016  0.93478848     0.16300
C1258       C  0.63653123  0.49037518  0.95406741     0.22100
C1259       C  0.66288296  0.49128752  0.96243695    -0.34200
C1260       C  0.67882386  0.51104964  0.95025038     0.16200
O1261       O  0.68724545  0.54560821  0.92259330    -0.26200
C1262       C  0.70862065  0.53974018  0.93664566     0.06000
C1263       C  0.70445679  0.51827969  0.95434824    -0.31100
O1264       O  0.61748726  0.47579098  0.96487941    -0.22900
C1265       C  0.59588508  0.48409019  0.95239202    -0.02900
C1266       C  0.60096536  0.50392789  0.93339802    -0.17300
H1267       H  0.63569458  0.54125085  0.90780963     0.20700
H1268       H  0.67017617  0.47816239  0.97792804     0.19000
H1269       H  0.71805143  0.50940818  0.96831169     0.19000
H1270       H  0.58690224  0.51556978  0.92205580     0.14800
C1271       C  0.52594351  0.66402970  0.04442358     0.30300
C1272       C  0.50729034  0.65025030  0.02904959    -0.36100
C1273       C  0.50547489  0.62226727  0.03345586     0.16300
C1274       C  0.52090551  0.60883683  0.05172463     0.22100
C1275       C  0.53912734  0.62260372  0.06722325    -0.34200
C1276       C  0.54099147  0.65033337  0.06272215     0.16200
O1277       O  0.53224494  0.68989489  0.04277542    -0.26200
C1278       C  0.55161676  0.69271857  0.06037979     0.06000
C1279       C  0.55773040  0.66844713  0.07310044    -0.31100
O1280       O  0.51862212  0.58248536  0.05032943    -0.22900
C1281       C  0.50130383  0.57869026  0.03103583    -0.02900
C1282       C  0.49224101  0.60280864  0.02001363    -0.17300
H1283       H  0.49576663  0.66040951  0.01396308     0.20700
H1284       H  0.55195275  0.61217586  0.08099995     0.19000
H1285       H  0.57287204  0.66399578  0.08745079     0.19000
H1286       H  0.47996791  0.60550136  0.00265360     0.14800
C1287       C  0.50660177  0.61822092  0.94220612     0.30300
C1288       C  0.50569611  0.64514377  0.95070773    -0.36100
C1289       C  0.48757655  0.66201386  0.93770757     0.16300
C1290       C  0.47170856  0.65300529  0.91753772     0.22100
C1291       C  0.47284605  0.62623959  0.90881187    -0.34200
C1292       C  0.49073796  0.60932735  0.92194873     0.16200
O1293       O  0.51957052  0.59836839  0.95380461    -0.26200
C1294       C  0.51202193  0.57637163  0.94085085     0.06000
C1295       C  0.49419890  0.58211943  0.92065233    -0.31100
O1296       O  0.45521030  0.67159436  0.90909687    -0.22900
C1297       C  0.46032682  0.69307387  0.92395993    -0.02900
C1298       C  0.48047024  0.68817018  0.94215685    -0.17300
H1299       H  0.51745642  0.65213287  0.96717092     0.20700
H1300       H  0.45981211  0.61881066  0.89358763     0.19000
H1301       H  0.48337296  0.56803332  0.90862026     0.19000
H1302       H  0.48840647  0.70155542  0.95697770     0.14800
C1303       C  0.37367380  0.52222619  0.02794190     0.30300
C1304       C  0.34851395  0.52743072  0.01823859    -0.36100
C1305       C  0.32966058  0.53449272  0.03724857     0.16300
C1306       C  0.33528847  0.53663773  0.06400768     0.22100
C1307       C  0.36056226  0.53094204  0.07385716    -0.34200
C1308       C  0.37952140  0.52351563  0.05473074     0.16200
O1309       O  0.39422237  0.51681414  0.01316084    -0.26200
C1310       C  0.41372579  0.51415743  0.03038670     0.06000
C1311       C  0.40587108  0.51787405  0.05680271    -0.31100
O1312       O  0.31520430  0.54607360  0.07777224    -0.22900
C1313       C  0.29644713  0.54965637  0.05963078    -0.02900
C1314       C  0.30434534  0.54253943  0.03406822    -0.17300
H1315       H  0.34416787  0.52676959  0.99715683     0.20700
H1316       H  0.36526425  0.53296089  0.09476382     0.19000
H1317       H  0.41784592  0.51762423  0.07452965     0.19000
H1318       H  0.29372704  0.54489314  0.01558714     0.14800
C1319       C  0.38575865  0.44424938  0.94097211     0.30300
C1320       C  0.36847026  0.42258136  0.94372210    -0.36100
C1321       C  0.34172455  0.42870950  0.94238543     0.16300
C1322       C  0.33228982  0.45437049  0.93836650     0.22100
C1323       C  0.34971937  0.47622931  0.93559150    -0.34200
C1324       C  0.37672446  0.47006641  0.93693124     0.16200
O1325       O  0.41121390  0.44323400  0.94507298    -0.26200
C1326       C  0.41909936  0.46863121  0.94322238     0.06000
C1327       C  0.39840477  0.48625332  0.93800062    -0.31100
O1328       O  0.30631515  0.45498817  0.93662705    -0.22900
C1329       C  0.29925151  0.42932823  0.93969666    -0.02900
C1330       C  0.32056507  0.41231586  0.94364263    -0.17300
H1331       H  0.37541443  0.40232286  0.94737514     0.20700
H1332       H  0.34274242  0.49660941  0.93291916     0.19000
H1333       H  0.39868974  0.50797937  0.93880996     0.19000
H1334       H  0.32052078  0.39061813  0.94551980     0.14800
C1335       C  0.08497292  0.46647249  0.34456627     0.30300
C1336       C  0.09134576  0.46819572  0.37169910    -0.36100
C1337       C  0.07656695  0.48638414  0.38691746     0.16300
C1338       C  0.05669045  0.50179538  0.37626406     0.22100
C1339       C  0.05041178  0.50019473  0.34895871    -0.34200
C1340       C  0.06531063  0.48195743  0.33366577     0.16200
O1341       O  0.09615602  0.45045798  0.32698287    -0.26200
C1342       C  0.08369661  0.45554325  0.30420033     0.06000
C1343       C  0.06415887  0.47507043  0.30727172    -0.31100
O1344       O  0.04369560  0.51536735  0.39477096    -0.22900
C1345       C  0.05551531  0.50867765  0.41756481    -0.02900
C1346       C  0.07624331  0.49085009  0.41372120    -0.17300
H1347       H  0.10641940  0.45570609  0.38049412     0.20700
H1348       H  0.03451369  0.51175627  0.34041725     0.19000
H1349       H  0.05108080  0.48322213  0.29236167     0.19000
H1350       H  0.08777930  0.48069709  0.42877633     0.14800
C1351       C  0.94236539  0.51776513  0.33431439     0.30300
C1352       C  0.96207162  0.50312936  0.34742974    -0.36100
C1353       C  0.95877212  0.49979152  0.37514918     0.16300
C1354       C  0.93775238  0.51038712  0.38911874     0.22100
C1355       C  0.91772778  0.52426928  0.37588816    -0.34200
C1356       C  0.92098572  0.52748163  0.34823128     0.16200
O1357       O  0.94236348  0.52524367  0.30890588    -0.26200
C1358       C  0.92058124  0.53994133  0.30646437     0.06000
C1359       C  0.90651859  0.54165872  0.33047368    -0.31100
O1360       O  0.94060614  0.50853790  0.41525485    -0.22900
C1361       C  0.96351783  0.49607232  0.41809700    -0.02900
C1362       C  0.97546112  0.48983656  0.39378243    -0.17300
H1363       H  0.97940188  0.49599478  0.33701262     0.20700
H1364       H  0.90146424  0.53327917  0.38660571     0.19000
H1365       H  0.88859145  0.55237021  0.33493891     0.19000
H1366       H  0.99497695  0.48186731  0.39039864     0.14800
C1367       C  0.05140563  0.50385396  0.62672007     0.30300
C1368       C  0.04507035  0.50359498  0.65407482    -0.36100
C1369       C  0.05984416  0.52076540  0.67018947     0.16300
C1370       C  0.07949496  0.53697399  0.66003660     0.22100
C1371       C  0.08580375  0.53725891  0.63271590    -0.34200
C1372       C  0.07103543  0.52015223  0.61659500     0.16200
O1373       O  0.03855272  0.49130181  0.60781626    -0.26200
C1374       C  0.05006578  0.49956478  0.58523654     0.06000
C1375       C  0.07049259  0.51751894  0.58952629    -0.31100
O1376       O  0.09014027  0.55217710  0.67840341    -0.22900
C1377       C  0.07720203  0.54583705  0.70080312    -0.02900
C1378       C  0.05806213  0.52624459  0.69680183    -0.17300
H1379       H  0.02912520  0.49152158  0.66208040     0.20700
H1380       H  0.10069886  0.55052578  0.62448047     0.19000
H1381       H  0.08170860  0.52877829  0.57479342     0.19000
H1382       H  0.04448886  0.51750597  0.71112409     0.14800
C1383       C  0.93538089  0.49347904  0.61545097     0.30300
C1384       C  0.91833419  0.47661172  0.62985230    -0.36100
C1385       C  0.92254250  0.47483789  0.65741814     0.16300
C1386       C  0.94203589  0.48874354  0.67024461     0.22100
C1387       C  0.95871804  0.50629995  0.65591829    -0.34200
C1388       C  0.95458241  0.50801734  0.62817827     0.16200
O1389       O  0.93739884  0.49482483  0.58918668    -0.26200
C1390       C  0.95796846  0.51073835  0.58482031     0.06000
C1391       C  0.96924719  0.51978258  0.60841083    -0.31100
O1392       O  0.94399300  0.48177134  0.69573522    -0.22900
C1393       C  0.92545747  0.46308047  0.69927885    -0.02900
C1394       C  0.91142101  0.45836167  0.67593413    -0.17300
H1395       H  0.90385654  0.46435701  0.62000686     0.20700
H1396       H  0.97475119  0.51663983  0.66542658     0.19000
H1397       H  0.98734807  0.53087258  0.61063714     0.19000
H1398       H  0.89589346  0.44408419  0.67229586     0.14800
C1399       C  0.05459236  0.37123202  0.52169535     0.30300
C1400       C  0.04759750  0.34404554  0.51988982    -0.36100
C1401       C  0.05865810  0.32681363  0.53893527     0.16300
C1402       C  0.07564549  0.33574506  0.55818170     0.22100
C1403       C  0.08281591  0.36292690  0.55988864    -0.34200
C1404       C  0.07159403  0.38023734  0.54095431     0.16200
O1405       O  0.04370087  0.39104573  0.50834205    -0.26200
C1406       C  0.05398816  0.41309143  0.51880331     0.06000
C1407       C  0.07153434  0.40765583  0.53923901    -0.31100
O1408       O  0.08301444  0.31637269  0.57444923    -0.22900
C1409       C  0.07058480  0.29461293  0.56568986    -0.02900
C1410       C  0.05503115  0.30000713  0.54354881    -0.17300
H1411       H  0.03357550  0.33707434  0.50545937     0.20700
H1412       H  0.09541594  0.37018966  0.57549790     0.19000
H1413       H  0.08039886  0.42173685  0.55280003     0.19000
H1414       H  0.04292515  0.28634441  0.53237840     0.14800
C1415       C  0.95469292  0.38251267  0.45175202     0.30300
C1416       C  0.95300593  0.36636933  0.42910063    -0.36100
C1417       C  0.94893694  0.33895008  0.43376566     0.16300
C1418       C  0.94673048  0.32786351  0.45898368     0.22100
C1419       C  0.94822389  0.34415389  0.48180181    -0.34200
C1420       C  0.95207126  0.37182728  0.47711625     0.16200
O1421       O  0.96120266  0.40808767  0.45180286    -0.26200
C1422       C  0.96214718  0.41434822  0.47750105     0.06000
C1423       C  0.95658187  0.39255928  0.49423696    -0.31100
O1424       O  0.94260472  0.30158757  0.45837819    -0.22900
C1425       C  0.94205636  0.29600656  0.43238338    -0.02900
C1426       C  0.94605020  0.31853504  0.41629434    -0.17300
H1427       H  0.95528856  0.37457111  0.40914209     0.20700
H1428       H  0.94679617  0.33581969  0.50178910     0.19000
H1429       H  0.95861145  0.39142772  0.51570959     0.19000
H1430       H  0.94595616  0.31978201  0.39472178     0.14800
C1431       C  0.95253589  0.67539679  0.53393755     0.30300
C1432       C  0.96452042  0.66418933  0.51109387    -0.36100
C1433       C  0.96234339  0.63608612  0.50841152     0.16300
C1434       C  0.94949758  0.62030387  0.52711407     0.22100
C1435       C  0.93766142  0.63142560  0.54975823    -0.34200
C1436       C  0.93971461  0.65928232  0.55229398     0.16200
O1437       O  0.95217338  0.70105375  0.54085874    -0.26200
C1438       C  0.93883886  0.70125075  0.56394428     0.06000
C1439       C  0.93090607  0.67559084  0.57192833    -0.31100
O1440       O  0.95174294  0.59447734  0.52230170    -0.22900
C1441       C  0.96590746  0.59330649  0.49995731    -0.02900
C1442       C  0.97305519  0.61865145  0.49027361    -0.17300
H1443       H  0.97518715  0.67641194  0.49671156     0.20700
H1444       H  0.92803397  0.61907303  0.56476546     0.19000
H1445       H  0.92038240  0.66939199  0.58974723     0.19000
H1446       H  0.98631736  0.62337808  0.47390725     0.14800
C1447       C  0.06424020  0.62270892  0.47928723     0.30300
C1448       C  0.07532926  0.63539404  0.45696129    -0.36100
C1449       C  0.07182766  0.66318474  0.45524553     0.16300
C1450       C  0.05845387  0.67791393  0.47412093     0.22100
C1451       C  0.04735420  0.66514472  0.49678597    -0.34200
C1452       C  0.05089324  0.63705156  0.49858152     0.16200
O1453       O  0.06265324  0.59657259  0.48289717    -0.26200
C1454       C  0.04839701  0.59374921  0.50503259     0.06000
C1455       C  0.04066572  0.61829828  0.51587735    -0.31100
O1456       O  0.05710513  0.70378563  0.46760677    -0.22900
C1457       C  0.06988183  0.70547620  0.44421819    -0.02900
C1458       C  0.07914717  0.68053764  0.43573478    -0.17300
H1459       H  0.08518439  0.62416805  0.44138272     0.20700
H1460       H  0.03609137  0.67614485  0.51150695     0.19000
H1461       H  0.02705410  0.62169152  0.53220927     0.19000
H1462       H  0.08945659  0.67528418  0.41757353     0.14800
C1463       C  0.48821826  0.06194885  0.61388809     0.30300
C1464       C  0.47072048  0.07828042  0.62817471    -0.36100
C1465       C  0.46686567  0.07154852  0.65515694     0.16300
C1466       C  0.47926842  0.05026999  0.66745755     0.22100
C1467       C  0.49716163  0.03415263  0.65327008    -0.34200
C1468       C  0.50113639  0.04095480  0.62623255     0.16200
O1469       O  0.49238218  0.06273068  0.58783176    -0.26200
C1470       C  0.50857633  0.04223112  0.58338589     0.06000
C1471       C  0.51484459  0.02815942  0.60665097    -0.31100
O1472       O  0.47152183  0.04687400  0.69254416    -0.22900
C1473       C  0.45384093  0.06628282  0.69640249    -0.02900
C1474       C  0.45043812  0.08228436  0.67364667    -0.17300
H1475       H  0.46001681  0.09444218  0.61865821     0.20700
H1476       H  0.50664163  0.01699296  0.66239162     0.19000
H1477       H  0.52574729  0.00958460  0.60845120     0.19000
H1478       H  0.43760548  0.09928368  0.67059453     0.14800
C1479       C  0.52393386  0.93550585  0.66495361     0.30300
C1480       C  0.50467503  0.95060370  0.65158719    -0.36100
C1481       C  0.50301611  0.94672422  0.62385781     0.16300
C1482       C  0.51928145  0.92931406  0.61020674     0.22100
C1483       C  0.53822956  0.91400500  0.62361246    -0.34200
C1484       C  0.53984650  0.91788422  0.65124584     0.16200
O1485       O  0.52996063  0.93696636  0.69054682    -0.26200
C1486       C  0.55003864  0.91996755  0.69335552     0.06000
C1487       C  0.55689651  0.90760327  0.66931743    -0.31100
O1488       O  0.51692988  0.93149325  0.58406942    -0.22900
C1489       C  0.49871773  0.95038067  0.58074405    -0.02900
C1490       C  0.48913988  0.96031171  0.60491070    -0.17300
H1491       H  0.49256550  0.96514708  0.66188171     0.20700
H1492       H  0.55166249  0.90091634  0.61303335     0.19000
H1493       H  0.57255626  0.89354673  0.66514139     0.19000
H1494       H  0.47623033  0.97731387  0.60798655     0.14800
C1495       C  0.33529768  0.05544896  0.45788318     0.30300
C1496       C  0.35229022  0.05444519  0.47985967    -0.36100
C1497       C  0.37930668  0.05303301  0.47385231     0.16300
C1498       C  0.38883691  0.05207292  0.44802778     0.22100
C1499       C  0.37194493  0.05327996  0.42615586    -0.34200
C1500       C  0.34510735  0.05500044  0.43215529     0.16200
O1501       O  0.30938780  0.05770357  0.45864368    -0.26200
C1502       C  0.30267021  0.05884045  0.43300657     0.06000
C1503       C  0.32416586  0.05697675  0.41576934    -0.31100
O1504       O  0.41424076  0.04716451  0.44690598    -0.22900
C1505       C  0.42145414  0.04570128  0.47232307    -0.02900
C1506       C  0.40049420  0.04934063  0.48997851    -0.17300
H1507       H  0.34496826  0.05445468  0.50020593     0.20700
H1508       H  0.37920160  0.05230030  0.40580266     0.19000
H1509       H  0.32439389  0.05801374  0.39417929     0.19000
H1510       H  0.40030286  0.04610451  0.51136535     0.14800
C1511       C  0.37496633  0.95316038  0.51462456     0.30300
C1512       C  0.34859628  0.96138819  0.51477957    -0.36100
C1513       C  0.33194679  0.94769392  0.53259216     0.16300
C1514       C  0.34074450  0.92721503  0.54886053     0.22100
C1515       C  0.36699019  0.91868282  0.54839900    -0.34200
C1516       C  0.38368316  0.93243668  0.53071035     0.16200
O1517       O  0.39438879  0.96582137  0.50262779    -0.26200
C1518       C  0.41578054  0.95286567  0.51068677     0.06000
C1519       C  0.41038393  0.93180070  0.52816112    -0.31100
O1520       O  0.32241480  0.91838304  0.56522971    -0.22900
C1521       C  0.30141283  0.93327115  0.55957266    -0.02900
C1522       C  0.30621351  0.95190671  0.53922912    -0.17300
H1523       H  0.34188874  0.97829220  0.50294323     0.20700
H1524       H  0.37414511  0.90329230  0.56187772     0.19000
H1525       H  0.42416621  0.92001656  0.53969568     0.19000
H1526       H  0.29307377  0.96682502  0.53097428     0.14800
C1527       C  0.51529158  0.04431241  0.37256681     0.30300
C1528       C  0.51476907  0.03912325  0.34501019    -0.36100
C1529       C  0.53388867  0.05228406  0.32933947     0.16300
C1530       C  0.55207987  0.06947623  0.34008693     0.22100
C1531       C  0.55248151  0.07483884  0.36756394    -0.34200
C1532       C  0.53346480  0.06162625  0.38323551     0.16200
O1533       O  0.50131513  0.03181399  0.39113093    -0.26200
C1534       C  0.51051100  0.04126426  0.41404649     0.06000
C1535       C  0.53043096  0.06009626  0.41028870    -0.31100
O1536       O  0.56861657  0.07901997  0.32203796    -0.22900
C1537       C  0.56113717  0.06787876  0.29920220    -0.02900
C1538       C  0.53950345  0.05094491  0.30263888    -0.17300
H1539       H  0.50109433  0.02499958  0.33655232     0.20700
H1540       H  0.56716081  0.08773133  0.37622753     0.19000
H1541       H  0.54269033  0.06916968  0.42527032     0.19000
H1542       H  0.52929337  0.03935782  0.28780949     0.14800
C1543       C  0.49554685  0.92335897  0.38812531     0.30300
C1544       C  0.47722265  0.90664182  0.37573181    -0.36100
C1545       C  0.47245838  0.91190134  0.34866974     0.16300
C1546       C  0.48500379  0.93205066  0.33456611     0.22100
C1547       C  0.50383144  0.94843312  0.34681284    -0.34200
C1548       C  0.50853049  0.94327231  0.37399436     0.16200
O1549       O  0.49967675  0.92469332  0.41403304    -0.26200
C1550       C  0.51577064  0.94552842  0.41668762     0.06000
C1551       C  0.52221990  0.95764126  0.39233327    -0.31100
O1552       O  0.47589136  0.93477911  0.31005819    -0.22900
C1553       C  0.45716182  0.91613284  0.30835260    -0.02900
C1554       C  0.45440743  0.90123503  0.33193352    -0.17300
H1555       H  0.46619583  0.89163794  0.38686147     0.20700
H1556       H  0.51309739  0.96503470  0.33627643     0.19000
H1557       H  0.53267450  0.97632806  0.38901937     0.19000
H1558       H  0.44064854  0.88535474  0.33668692     0.14800
C1559       C  0.63630600  0.04296881  0.50402515     0.30300
C1560       C  0.66373590  0.03931604  0.50428686    -0.36100
C1561       C  0.67740422  0.05303651  0.52431911     0.16300
C1562       C  0.66488159  0.06934350  0.54253545     0.22100
C1563       C  0.63762168  0.07302892  0.54225566    -0.34200
C1564       C  0.62399907  0.05922133  0.52247809     0.16200
O1565       O  0.61936964  0.03015472  0.48885165    -0.26200
C1566       C  0.59598307  0.03831591  0.49779533     0.06000
C1567       C  0.59775323  0.05645986  0.51864677    -0.31100
O1568       O  0.68113653  0.08001370  0.55971493    -0.22900
C1569       C  0.70462193  0.07051527  0.55272575    -0.02900
C1570       C  0.70346803  0.05345564  0.53074360    -0.17300
H1571       H  0.67358837  0.02606451  0.49043428     0.20700
H1572       H  0.62763954  0.08525559  0.55693637     0.19000
H1573       H  0.58196295  0.06470872  0.53063985     0.19000
H1574       H  0.71937483  0.04313663  0.52071890     0.14800
C1575       C  0.66378934  0.91745045  0.46546327     0.30300
C1576       C  0.63654468  0.91376204  0.46478539    -0.36100
C1577       C  0.62189061  0.92796741  0.48376112     0.16300
C1578       C  0.63319003  0.94466064  0.50227333     0.22100
C1579       C  0.66056727  0.94837905  0.50291728    -0.34200
C1580       C  0.67528491  0.93416055  0.48379060     0.16200
O1581       O  0.68093563  0.90682636  0.44884732    -0.26200
C1582       C  0.70396517  0.91676544  0.45635031     0.06000
C1583       C  0.70159117  0.93396922  0.47815246    -0.31100
O1584       O  0.61548104  0.95780675  0.51650973    -0.22900
C1585       C  0.59261625  0.94935414  0.50696070    -0.02900
C1586       C  0.59548562  0.93078443  0.48657231    -0.17300
H1587       H  0.62735091  0.90130912  0.44994855     0.20700
H1588       H  0.66964732  0.96206924  0.51672567     0.19000
H1589       H  0.71679283  0.94500064  0.48826791     0.19000
H1590       H  0.58035390  0.92238994  0.47409886     0.14800
loop_ 
_geom_bond_atom_site_label_1 
_geom_bond_atom_site_label_2 
_geom_bond_distance 
_geom_bond_site_symmetry_2 
_ccdc_geom_bond_type 
O1            C9   1.288       .  A
O1          Co21   2.079   1_565  S
O2           C10   1.264       .  A
O2          Co22   1.989   1_565  S
O3           C11   1.270       .  A
O3          Co23   1.973       .  S
O4           C12   1.258       .  A
O4          Co24   1.974       .  S
O5           C11   1.280       .  A
O5          Co22   2.035   1_565  S
O6           C12   1.264       .  A
O6          Co21   2.016   1_565  S
O7           C10   1.265       .  A
O7          Co24   1.984       .  S
O8            C9   1.267       .  A
O8          Co23   1.920       .  S
C9         C1585   1.467       .  S
C10        C1518   1.457       .  S
C11        C1489   1.476       .  S
C12        C1550   1.474       .  S
O13          C26   1.270       .  A
O13         Co21   1.970       .  S
O14          C27   1.262       .  A
O14         Co22   1.980       .  S
O15          C28   1.291       .  A
O15         Co23   2.085   1_545  S
O16          C29   1.270       .  A
O16         Co24   1.997   1_545  S
O17          C29   1.272       .  A
O17         Co22   1.985       .  S
O18          C28   1.268       .  A
O18         Co21   1.917       .  S
O19          C26   1.280       .  A
O19         Co24   2.035   1_545  S
O20          C27   1.262       .  A
O20         Co23   2.000   1_545  S
Co21         O25   2.030   1_545  S
Co22         O25   2.050   1_545  S
Co23         O25   2.021       .  S
Co24         O25   2.030       .  S
C26        C1534   1.475       .  S
C27        C1470   1.475       .  S
C28        C1566   1.471       .  S
C29        C1505   1.465       .  S
O30          C38   1.291       .  A
O30         Co50   2.088       .  S
O31          C39   1.268       .  A
O31         Co51   1.996   1_455  S
O32          C40   1.271       .  A
O32         Co52   1.972       .  S
O33          C41   1.262       .  A
O33         Co53   1.975       .  S
O34          C40   1.277       .  A
O34         Co51   2.025   1_455  S
O35          C41   1.265       .  A
O35         Co50   2.019       .  S
O36          C39   1.266       .  A
O36         Co53   1.982       .  S
O37          C38   1.268       .  A
O37         Co52   1.918       .  S
C38        C1454   1.469       .  S
C39        C1406   1.459       .  S
C40        C1374   1.471       .  S
C41        C1345   1.481       .  S
O42          C55   1.273       .  A
O42         Co50   1.980   1_655  S
O43          C56   1.264       .  A
O43         Co51   1.985       .  S
O44          C57   1.288       .  A
O44         Co52   2.079   1_655  S
O45          C58   1.270   1_455  A
O45         Co53   2.000       .  S
O46          C58   1.271       .  A
O46         Co51   1.984       .  S
O47          C57   1.271       .  A
O47         Co50   1.927   1_655  S
O48          C55   1.278       .  A
O48         Co53   2.022   1_655  S
O49          C56   1.264       .  A
O49         Co52   2.006   1_655  S
Co50         O54   2.033       .  S
Co51         O54   2.047   1_655  S
Co52         O54   2.016       .  S
Co53         O54   2.031       .  S
C55        C1361   1.472       .  S
C56        C1390   1.477       .  S
C57        C1441   1.471       .  S
C58        C1422   1.465       .  S
O59          C67   1.268       .  A
O59         Co79   1.991   1_556  S
O60          C68   1.293       .  A
O60         Co80   2.092       .  S
O61          C69   1.264       .  A
O61         Co81   1.979       .  S
O62          C70   1.271       .  A
O62         Co82   1.975       .  S
O63          C69   1.263       .  A
O63         Co80   2.011       .  S
O64          C70   1.278       .  A
O64         Co79   2.032   1_556  S
O65          C68   1.268       .  A
O65         Co82   1.914       .  S
O66          C67   1.273       .  A
O66         Co81   1.992       .  S
C67        C1326   1.466       .  S
C68        C1265   1.472       .  S
C69        C1294   1.484       .  S
C70        C1230   1.476       .  S
O71          C84   1.265       .  A
O71         Co79   1.978       .  S
O72          C85   1.273       .  A
O72         Co80   1.977   1_554  S
O73          C86   1.265   1_556  A
O73         Co81   1.977       .  S
O74          C87   1.291       .  A
O74         Co82   2.086   1_554  S
O75          C87   1.268       .  A
O75         Co80   1.924   1_554  S
O76          C86   1.270       .  A
O76         Co79   1.999       .  S
O77          C84   1.264       .  A
O77         Co82   2.011   1_554  S
O78          C85   1.279   1_556  A
O78         Co81   2.030       .  S
Co79         O83   2.051   1_554  S
Co80         O83   2.032       .  S
Co81         O83   2.052       .  S
Co82         O83   2.029       .  S
C84        C1217   1.482       .  S
C85        C1281   1.477       .  S
C86        C1310   1.464       .  S
C87        C1249   1.478       .  S
C88        C1486   1.495       .  S
C88          C89   1.408       .  A
C88          C93   1.415       .  A
C89          C90   1.399       .  A
C89          H94   1.080       .  S
C90        C1198   1.479       .  S
C90          C91   1.397       .  A
C91          C92   1.407       .  A
C91          H95   1.083       .  S
C92        C1185   1.493       .  S
C92          C93   1.415       .  A
C93          H96   1.081       .  S
C97        C1153   1.470       .  S
C97          N98   1.359       .  A
C97         N102   1.359       .  A
N98          C99   1.359       .  A
C99        C1201   1.468       .  S
C99         N100   1.357       .  A
N100        C101   1.357       .  A
C101       C1169   1.469       .  S
C101        N102   1.358       .  A
C103       C1134   1.495       .  S
C103        C104   1.410       .  A
C103        C108   1.414       .  A
C104        C105   1.397       .  A
C104        H109   1.080       .  S
C105       C1166   1.480       .  S
C105        C106   1.398       .  A
C106        C107   1.408       .  A
C106        H110   1.078       .  S
C107       C1438   1.493       .  S
C107        C108   1.413       .  A
C108        H111   1.083       .  S
C112       C1118   1.493       .  S
C112        C113   1.417       .  A
C112        C117   1.405       .  A
C113        C114   1.419       .  A
C113        H118   1.082       .  S
C114       C1262   1.494       .  S
C114        C115   1.409       .  A
C115        C116   1.397       .  A
C115        H119   1.084       .  S
C116       C1150   1.478       .  S
C116        C117   1.397       .  A
C117        H120   1.083       .  S
C121       C1086   1.466       .  S
C121        N122   1.359       .  A
C121        N126   1.358       .  A
N122        C123   1.359       .  A
C123       C1105   1.467       .  S
C123        N124   1.355       .  A
N124        C125   1.355       .  A
C125       C1073   1.463       .  S
C125        N126   1.355       .  A
C127       C1329   1.483       .  S
C127        C128   1.400       .  A
C127        C132   1.411       .  A
C128        C129   1.396       .  A
C128        H133   1.082       .  S
C129       C1102   1.479       .  S
C129        C130   1.400       .  A
C130        C131   1.411       .  A
C130        H134   1.084       .  S
C131       C1054   1.494       .  S
C131        C132   1.419       .  A
C132        H135   1.082       .  S
C136       C1038   1.488       .  S
C136        C137   1.413       .  A
C136        C141   1.404       .  A
C137        C138   1.418       .  A
C137        H142   1.083       .  S
C138       C1473   1.494       .  S
C138        C139   1.411       .  A
C139        C140   1.395       .  A
C139        H143   1.079       .  S
C140       C1089   1.473       .  S
C140        C141   1.392       .  A
C141        H144   1.082       .  S
C145       C1025   1.489       .  S
C145        C146   1.415       .  A
C145        C150   1.406       .  A
C146        C147   1.417       .  A
C146        H151   1.080       .  S
C147       C1409   1.486       .  S
C147        C148   1.402       .  A
C148        C149   1.393       .  A
C148        H152   1.085       .  S
C149       C1070   1.468       .  S
C149        C150   1.395       .  A
C150        H153   1.083       .  S
O154        C162   1.290       .  A
O154       Co174   2.081   1_565  S
O155        C163   1.267       .  A
O155       Co175   1.993       .  S
O156        C164   1.272   1_556  A
O156       Co176   1.971       .  S
O157        C165   1.264   1_554  A
O157       Co177   1.977       .  S
O158        C164   1.280       .  A
O158       Co175   2.037       .  S
O159        C165   1.265       .  A
O159       Co174   2.014       .  S
O160        C163   1.269       .  A
O160       Co177   1.993   1_565  S
O161        C162   1.267       .  A
O161       Co176   1.922       .  S
C162       C1041   1.469       .  S
C163        C974   1.468       .  S
C164        C945   1.478       .  S
C165        C990   1.481       .  S
O166        C179   1.272   1_556  A
O166       Co174   1.972       .  S
O167        C180   1.264       .  A
O167       Co175   1.986   1_556  S
O168        C181   1.291   1_565  A
O168       Co176   2.088       .  S
O169        C182   1.269       .  A
O169       Co177   1.996       .  S
O170        C182   1.271   1_565  A
O170       Co175   1.990       .  S
O171        C181   1.270       .  A
O171       Co174   1.923       .  S
O172        C179   1.277       .  A
O172       Co177   2.030       .  S
O173        C180   1.261       .  A
O173       Co176   2.000       .  S
Co174       O178   2.030   1_546  S
Co175       O178   2.047       .  S
Co176       O178   2.025   1_556  S
Co177       O178   2.048   1_545  S
C179       C1006   1.473   1_554  S
C180        C926   1.478       .  S
C181       C1182   1.475   1_545  S
C182        C958   1.463       .  S
C183        C910   1.471       .  S
C183        N184   1.359       .  A
C183        N188   1.360       .  A
N184        C185   1.359       .  A
C185        C894   1.470       .  S
C185        N186   1.358       .  A
N186        C187   1.357       .  A
C187        C881   1.469       .  S
C187        N188   1.358       .  A
C189       C1297   1.498       .  S
C189        C190   1.409       .  A
C189        C194   1.418       .  A
C190        C191   1.401       .  A
C190        H195   1.085       .  S
C191        C913   1.482       .  S
C191        C192   1.400       .  A
C192        C193   1.406       .  A
C192        H196   1.083       .  S
C193        C942   1.495       .  S
C193        C194   1.417       .  A
C194        H197   1.080       .  S
C198        C865   1.489       .  S
C198        C199   1.410       .  A
C198        C203   1.414       .  A
C199        C200   1.399       .  A
C199        H204   1.083       .  S
C200        C897   1.473       .  S
C200        C201   1.393       .  A
C201        C202   1.400       .  A
C201        H205   1.084       .  S
C202       C1521   1.484       .  S
C202        C203   1.412       .  A
C203        H206   1.082       .  S
C207        C849   1.488       .  S
C207        C208   1.411       .  A
C207        C212   1.406       .  A
C208        C209   1.413       .  A
C208        H213   1.080       .  S
C209       C1377   1.489       .  S
C209        C210   1.407       .  A
C210        C211   1.400       .  A
C210        H214   1.083       .  S
C211        C878   1.480       .  S
C211        C212   1.400       .  A
C212        H215   1.084       .  S
C216        C798   1.467       .  S
C216        N217   1.358       .  A
C216        N221   1.356       .  A
N217        C218   1.359       .  A
C218        C814   1.474       .  S
C218        N219   1.362       .  A
N219        C220   1.361       .  A
C220        C830   1.473       .  S
C220        N221   1.357       .  A
C222       C1425   1.482       .  S
C222        C223   1.402       .  A
C222        C227   1.410       .  A
C223        C224   1.398       .  A
C223        H228   1.084       .  S
C224        C833   1.482       .  S
C224        C225   1.402       .  A
C225        C226   1.414       .  A
C225        H229   1.080       .  S
C226        C785   1.496       .  S
C226        C227   1.415       .  A
C227        H230   1.084       .  S
C231        C766   1.493       .  S
C231        C232   1.408       .  A
C231        C236   1.417       .  A
C232        C233   1.397       .  A
C232        H237   1.083       .  S
C233        C817   1.481       .  S
C233        C234   1.401       .  A
C234        C235   1.407       .  A
C234        H238   1.083       .  S
C235       C1246   1.492       .  S
C235        C236   1.416       .  A
C236        H239   1.079       .  S
C240       C1537   1.492       .  S
C240        C241   1.408       .  A
C240        C245   1.417       .  A
C241        C242   1.401       .  A
C241        H246   1.083       .  S
C242        C801   1.476       .  S
C242        C243   1.395       .  A
C243        C244   1.400       .  A
C243        H247   1.084       .  S
C244        C961   1.484       .  S
C244        C245   1.413       .  A
C245        H248   1.081       .  S
O249        C257   1.271   1_556  A
O249       Co269   1.974       .  S
O250        C258   1.260   1_554  A
O250       Co270   1.973       .  S
O251        C259   1.267       .  A
O251       Co271   1.995       .  S
O252        C260   1.289   1_455  A
O252       Co272   2.081       .  S
O253        C259   1.270   1_455  A
O253       Co270   1.990       .  S
O254        C260   1.269       .  A
O254       Co269   1.925       .  S
O255        C258   1.260       .  A
O255       Co272   2.000       .  S
O256        C257   1.277       .  A
O256       Co271   2.028       .  S
C257       C1121   1.476       .  S
C258        C750   1.470       .  S
C259        C721   1.464       .  S
C260        C846   1.471       .  S
O261        C274   1.290   1_655  A
O261       Co269   2.087       .  S
O262        C275   1.267       .  A
O262       Co270   1.990       .  S
O263        C276   1.267   1_554  A
O263       Co271   1.986       .  S
O264        C277   1.273   1_556  A
O264       Co272   1.972       .  S
O265        C277   1.282       .  A
O265       Co270   2.043       .  S
O266        C276   1.263       .  A
O266       Co269   1.999       .  S
O267        C274   1.267       .  A
O267       Co272   1.925       .  S
O268        C275   1.273       .  A
O268       Co271   1.995   1_455  S
Co269       O273   2.028   1_656  S
Co270       O273   2.036       .  S
Co271       O273   2.050   1_655  S
Co272       O273   2.032   1_556  S
C274        C702   1.472       .  S
C275        C734   1.469       .  S
C276        C769   1.474       .  S
C277       C1057   1.478   1_554  S
C278        C670   1.490       .  S
C278        C279   1.412       .  A
C278        C283   1.416       .  A
C279        C280   1.400       .  A
C279        H284   1.084       .  S
C280        C686   1.479       .  S
C280        C281   1.396       .  A
C281        C282   1.401       .  A
C281        H285   1.083       .  S
C282       C1502   1.481       .  S
C282        C283   1.409       .  A
C283        H286   1.082       .  S
C287        C657   1.471       .  S
C287        N288   1.356       .  A
C287        N292   1.358       .  A
N288        C289   1.357       .  A
C289        C689   1.473       .  S
C289        N290   1.361       .  A
N290        C291   1.362       .  A
C291        C638   1.475       .  S
C291        N292   1.361       .  A
C293       C1342   1.496       .  S
C293        C294   1.418       .  A
C293        C298   1.411       .  A
C294        C295   1.412       .  A
C294        H299   1.082       .  S
C295        C737   1.487       .  S
C295        C296   1.403       .  A
C296        C297   1.397       .  A
C296        H300   1.084       .  S
C297        C654   1.479       .  S
C297        C298   1.401       .  A
C298        H301   1.084       .  S
C302       C1214   1.498       .  S
C302        C303   1.409       .  A
C302        C307   1.419       .  A
C303        C304   1.400       .  A
C303        H308   1.083       .  S
C304        C641   1.487       .  S
C304        C305   1.401       .  A
C305        C306   1.406       .  A
C305        H309   1.082       .  S
C306        C993   1.498       .  S
C306        C307   1.419       .  A
C307        H310   1.082       .  S
C311        C625   1.467       .  S
C311        N312   1.356       .  A
C311        N316   1.357       .  A
N312        C313   1.356       .  A
C313        C593   1.466       .  S
C313        N314   1.357       .  A
N314        C315   1.359       .  A
C315        C606   1.465       .  S
C315        N316   1.359       .  A
C317       C1393   1.497       .  S
C317        C318   1.418       .  A
C317        C322   1.411       .  A
C318        C319   1.414       .  A
C318        H323   1.082       .  S
C319        C705   1.494       .  S
C319        C320   1.407       .  A
C320        C321   1.395       .  A
C320        H324   1.077       .  S
C321        C622   1.478       .  S
C321        C322   1.395       .  A
C322        H325   1.084       .  S
C326       C1009   1.490       .  S
C326        C327   1.407       .  A
C326        C331   1.415       .  A
C327        C328   1.395       .  A
C327        H332   1.082       .  S
C328        C609   1.478       .  S
C328        C329   1.395       .  A
C329        C330   1.409       .  A
C329        H333   1.077       .  S
C330       C1233   1.495       .  S
C330        C331   1.417       .  A
C331        H334   1.083       .  S
C335       C1569   1.487       .  S
C335        C336   1.414       .  A
C335        C340   1.408       .  A
C336        C337   1.411       .  A
C336        H341   1.081       .  S
C337        C577   1.479       .  S
C337        C338   1.399       .  A
C338        C339   1.395       .  A
C338        H342   1.084       .  S
C339        C590   1.475       .  S
C339        C340   1.400       .  A
C340        H343   1.083       .  S
C344        C561   1.472       .  S
C344        N345   1.358       .  A
C344        N349   1.361       .  A
N345        C346   1.357       .  A
C346        C545   1.469       .  S
C346        N347   1.357       .  A
N347        C348   1.359       .  A
C348        C526   1.471       .  S
C348        N349   1.360       .  A
C350       C1582   1.489       .  S
C350        C351   1.408       .  A
C350        C355   1.413       .  A
C351        C352   1.400       .  A
C351        H356   1.084       .  S
C352        C558   1.483       .  S
C352        C353   1.402       .  A
C353        C354   1.407       .  A
C353        H357   1.081       .  S
C354        C510   1.487       .  S
C354        C355   1.409       .  A
C355        H358   1.082       .  S
C359        C718   1.490       .  S
C359        C360   1.416       .  A
C359        C364   1.406       .  A
C360        C361   1.414       .  A
C360        H365   1.081       .  S
C361       C1358   1.494       .  S
C361        C362   1.407       .  A
C362        C363   1.398       .  A
C362        H366   1.079       .  S
C363        C542   1.480       .  S
C363        C364   1.397       .  A
C364        H367   1.083       .  S
C368        C929   1.501       .  S
C368        C369   1.421       .  A
C368        C373   1.411       .  A
C369        C370   1.419       .  A
C369        H374   1.084       .  S
C370       C1278   1.501       .  S
C370        C371   1.408       .  A
C371        C372   1.394       .  A
C371        H375   1.077       .  S
C372        C529   1.482       .  S
C372        C373   1.395       .  A
C373        H376   1.088       .  S
C377        C481   1.471       .  S
C377        N378   1.358       .  A
C377        N382   1.356       .  A
N378        C379   1.358       .  A
C379        C494   1.471       .  S
C379        N380   1.361       .  A
N380        C381   1.360       .  A
C381        C462   1.470       .  S
C381        N382   1.359       .  A
C383       C1553   1.495       .  S
C383        C384   1.412       .  A
C383        C388   1.412       .  A
C384        C385   1.411       .  A
C384        H389   1.083       .  S
C385        C977   1.484       .  S
C385        C386   1.401       .  A
C386        C387   1.397       .  A
C386        H390   1.084       .  S
C387        C497   1.477       .  S
C387        C388   1.404       .  A
C388        H391   1.082       .  S
C392        C449   1.498       .  S
C392        C393   1.418       .  A
C392        C397   1.411       .  A
C393        C394   1.415       .  A
C393        H398   1.083       .  S
C394       C1457   1.498       .  S
C394        C395   1.409       .  A
C395        C396   1.396       .  A
C395        H399   1.078       .  S
C396        C478   1.481       .  S
C396        C397   1.396       .  A
C397        H400   1.083       .  S
C401       C1313   1.478       .  S
C401        C402   1.398       .  A
C401        C406   1.412       .  A
C402        C403   1.396       .  A
C402        H407   1.084       .  S
C403        C465   1.474       .  S
C403        C404   1.400       .  A
C404        C405   1.408       .  A
C404        H408   1.083       .  S
C405        C753   1.490       .  S
C405        C406   1.413       .  A
C406        H409   1.082       .  S
O410        C418   1.258   1_655  A
O410       Co430   1.972       .  S
O411        C419   1.271   1_455  A
O411       Co431   1.975       .  S
O412        C420   1.292   1_565  A
O412       Co432   2.087       .  S
O413        C421   1.269       .  A
O413       Co433   1.997       .  S
O414        C420   1.269       .  A
O414       Co431   1.922       .  S
O415        C421   1.265   1_565  A
O415       Co430   1.973       .  S
O416        C419   1.277       .  A
O416       Co433   2.027       .  S
O417        C418   1.261       .  A
O417       Co432   2.011       .  S
C418       C1137   1.475       .  S
C419       C1022   1.472       .  S
C420        C862   1.475       .  S
C421        C574   1.455       .  S
O422        C435   1.269       .  A
O422       Co430   2.003       .  S
O423        C436   1.291   1_545  A
O423       Co431   2.083       .  S
O424        C437   1.273   1_455  A
O424       Co432   1.976       .  S
O425        C438   1.261   1_655  A
O425       Co433   1.975       .  S
O426        C438   1.267       .  A
O426       Co431   2.021       .  S
O427        C437   1.280       .  A
O427       Co430   2.028       .  S
O428        C435   1.268   1_545  A
O428       Co433   1.983       .  S
O429        C436   1.268       .  A
O429       Co432   1.919       .  S
Co430       O434   2.034       .  S
Co431       O434   2.027   1_445  S
Co432       O434   2.032   1_455  S
Co433       O434   2.042   1_545  S
C435        C513   1.466       .  S
C436        C673   1.471       .  S
C437        C446   1.475       .  S
C438        C782   1.479       .  S
C439        C444   1.381       .  A
C439        C440   1.401       .  A
C439        O445   1.321       .  A
C440        C441   1.403       .  A
C440        H451   1.083       .  S
C441        C450   1.356       .  A
C441        C442   1.377       .  A
C442        C443   1.407       .  A
C442        O448   1.326       .  A
C443        C444   1.409       .  A
C443        H452   1.083   1_455  S
C444        C447   1.362   1_455  A
O445        C446   1.330   1_455  A
C446        C447   1.396       .  A
C447        H453   1.083       .  S
O448        C449   1.336       .  A
C449        C450   1.398       .  A
C450        H454   1.081       .  S
C455        C460   1.381       .  A
C455        C456   1.403       .  A
C455        O461   1.320       .  A
C456        C457   1.403       .  A
C456        H467   1.082       .  S
C457        C466   1.359       .  A
C457        C458   1.380       .  A
C458        C459   1.400       .  A
C458        O464   1.317       .  A
C459        C460   1.400       .  A
C459        H468   1.081       .  S
C460        C463   1.358       .  A
O461        C462   1.331       .  A
C462        C463   1.390       .  A
C463        H469   1.082       .  S
O464        C465   1.329       .  A
C465        C466   1.394       .  A
C466        H470   1.082       .  S
C471        C476   1.380       .  A
C471        C472   1.403       .  A
C471        O477   1.319       .  A
C472        C473   1.402       .  A
C472        H483   1.082       .  S
C473        C482   1.360       .  A
C473        C474   1.380       .  A
C474        C475   1.404       .  A
C474        O480   1.320       .  A
C475        C476   1.404       .  A
C475        H484   1.083       .  S
C476        C479   1.361       .  A
O477        C478   1.331       .  A
C478        C479   1.394       .  A
C479        H485   1.083       .  S
O480        C481   1.332       .  A
C481        C482   1.390       .  A
C482        H486   1.083       .  S
C487        C492   1.380       .  A
C487        C488   1.405       .  A
C487        O493   1.318       .  A
C488        C489   1.403       .  A
C488        H499   1.082       .  S
C489        C498   1.365       .  A
C489        C490   1.380       .  A
C490        C491   1.404       .  A
C490        O496   1.317       .  A
C491        C492   1.402       .  A
C491        H500   1.082       .  S
C492        C495   1.364       .  A
O493        C494   1.331       .  A
C494        C495   1.391       .  A
C495        H501   1.082       .  S
O496        C497   1.331       .  A
C497        C498   1.392       .  A
C498        H502   1.082       .  S
C503        C508   1.379       .  A
C503        C504   1.409       .  A
C503        O509   1.325       .  A
C504        C505   1.409       .  A
C504        H515   1.082       .  S
C505        C514   1.366       .  A
C505        C506   1.380       .  A
C506        C507   1.401       .  A
C506        O512   1.319       .  A
C507        C508   1.401       .  A
C507        H516   1.081       .  S
C508        C511   1.357       .  A
O509        C510   1.335       .  A
C510        C511   1.393       .  A
C511        H517   1.081       .  S
O512        C513   1.329       .  A
C513        C514   1.395       .  A
C514        H518   1.083   1_565  S
C519        C524   1.380       .  A
C519        C520   1.406       .  A
C519        O525   1.321       .  A
C520        C521   1.405       .  A
C520        H531   1.083       .  S
C521        C530   1.364       .  A
C521        C522   1.380       .  A
C522        C523   1.401       .  A
C522        O528   1.316       .  A
C523        C524   1.400       .  A
C523        H532   1.083       .  S
C524        C527   1.359       .  A
O525        C526   1.332       .  A
C526        C527   1.390       .  A
C527        H533   1.082       .  S
O528        C529   1.331       .  A
C529        C530   1.395       .  A
C530        H534   1.082       .  S
C535        C540   1.379       .  A
C535        C536   1.405       .  A
C535        O541   1.320       .  A
C536        C537   1.404       .  A
C536        H547   1.082       .  S
C537        C546   1.363       .  A
C537        C538   1.381       .  A
C538        C539   1.401       .  A
C538        O544   1.317       .  A
C539        C540   1.400       .  A
C539        H548   1.081       .  S
C540        C543   1.358       .  A
O541        C542   1.332       .  A
C542        C543   1.393       .  A
C543        H549   1.082       .  S
O544        C545   1.329       .  A
C545        C546   1.393       .  A
C546        H550   1.082       .  S
C551        C556   1.379       .  A
C551        C552   1.405       .  A
C551        O557   1.320       .  A
C552        C553   1.405       .  A
C552        H563   1.082       .  S
C553        C562   1.364       .  A
C553        C554   1.380       .  A
C554        C555   1.403       .  A
C554        O560   1.318       .  A
C555        C556   1.402       .  A
C555        H564   1.082       .  S
C556        C559   1.361       .  A
O557        C558   1.333       .  A
C558        C559   1.393       .  A
C559        H565   1.082       .  S
O560        C561   1.331       .  A
C561        C562   1.392       .  A
C562        H566   1.083       .  S
C567        C572   1.380       .  A
C567        C568   1.405       .  A
C567        O573   1.316       .  A
C568        C569   1.402       .  A
C568        H579   1.084   1_545  S
C569        C578   1.366       .  A
C569        C570   1.379       .  A
C570        C571   1.401       .  A
C570        O576   1.313       .  A
C571        C572   1.399       .  A
C571        H580   1.084       .  S
C572        C575   1.360       .  A
O573        C574   1.330       .  A
C574        C575   1.388       .  A
C575        H581   1.084       .  S
O576        C577   1.331       .  A
C577        C578   1.393       .  A
C578        H582   1.083       .  S
C583        C588   1.380       .  A
C583        C584   1.399       .  A
C583        O589   1.314       .  A
C584        C585   1.398       .  A
C584        H595   1.081       .  S
C585        C594   1.356       .  A
C585        C586   1.381       .  A
C586        C587   1.405       .  A
C586        O592   1.320       .  A
C587        C588   1.404       .  A
C587        H596   1.082       .  S
C588        C591   1.363       .  A
O589        C590   1.330       .  A
C590        C591   1.394       .  A
C591        H597   1.082       .  S
O592        C593   1.331       .  A
C593        C594   1.388       .  A
C594        H598   1.082       .  S
C599        C604   1.381       .  A
C599        C600   1.401       .  A
C599        O605   1.317       .  A
C600        C601   1.400       .  A
C600        H611   1.082       .  S
C601        C610   1.359       .  A
C601        C602   1.380       .  A
C602        C603   1.403       .  A
C602        O608   1.317       .  A
C603        C604   1.402       .  A
C603        H612   1.082       .  S
C604        C607   1.361       .  A
O605        C606   1.329       .  A
C606        C607   1.391       .  A
C607        H613   1.082       .  S
O608        C609   1.331       .  A
C609        C610   1.393       .  A
C610        H614   1.082       .  S
C615        C620   1.380       .  A
C615        C616   1.403       .  A
C615        O621   1.319       .  A
C616        C617   1.402       .  A
C616        H627   1.080       .  S
C617        C626   1.359       .  A
C617        C618   1.381       .  A
C618        C619   1.402       .  A
C618        O624   1.318       .  A
C619        C620   1.402       .  A
C619        H628   1.081       .  S
C620        C623   1.359       .  A
O621        C622   1.331       .  A
C622        C623   1.393       .  A
C623        H629   1.083       .  S
O624        C625   1.330       .  A
C625        C626   1.391       .  A
C626        H630   1.082       .  S
C631        C636   1.380       .  A
C631        C632   1.403       .  A
C631        O637   1.320       .  A
C632        C633   1.403       .  A
C632        H643   1.084       .  S
C633        C642   1.360       .  A
C633        C634   1.379       .  A
C634        C635   1.405       .  A
C634        O640   1.321       .  A
C635        C636   1.405       .  A
C635        H644   1.085       .  S
C636        C639   1.363       .  A
O637        C638   1.331       .  A
C638        C639   1.393       .  A
C639        H645   1.084       .  S
O640        C641   1.334       .  A
C641        C642   1.395       .  A
C642        H646   1.082       .  S
C647        C652   1.381       .  A
C647        C648   1.403       .  A
C647        O653   1.320       .  A
C648        C649   1.403       .  A
C648        H659   1.084       .  S
C649        C658   1.360       .  A
C649        C650   1.381       .  A
C650        C651   1.403       .  A
C650        O656   1.320       .  A
C651        C652   1.403       .  A
C651        H660   1.084       .  S
C652        C655   1.360       .  A
O653        C654   1.331       .  A
C654        C655   1.393       .  A
C655        H661   1.083       .  S
O656        C657   1.331       .  A
C657        C658   1.392       .  A
C658        H662   1.084       .  S
C663        C668   1.379       .  A
C663        C664   1.399       .  A
C663        O669   1.315       .  A
C664        C665   1.398       .  A
C664        H675   1.083       .  S
C665        C674   1.357       .  A
C665        C666   1.379       .  A
C666        C667   1.411       .  A
C666        O672   1.325   1_545  A
C667        C668   1.410       .  A
C667        H676   1.083   1_545  S
C668        C671   1.370       .  A
O669        C670   1.331       .  A
C670        C671   1.400       .  A
C671        H677   1.082       .  S
O672        C673   1.335       .  A
C673        C674   1.388   1_565  A
C674        H678   1.083       .  S
C679        C684   1.380       .  A
C679        C680   1.404       .  A
C679        O685   1.322       .  A
C680        C681   1.405       .  A
C680        H691   1.082       .  S
C681        C690   1.361       .  A
C681        C682   1.381       .  A
C682        C683   1.401       .  A
C682        O688   1.320       .  A
C683        C684   1.402       .  A
C683        H692   1.082       .  S
C684        C687   1.357       .  A
O685        C686   1.332       .  A
C686        C687   1.392       .  A
C687        H693   1.082       .  S
O688        C689   1.330       .  A
C689        C690   1.393       .  A
C690        H694   1.082       .  S
C695        C700   1.380       .  A
C695        C696   1.397       .  A
C695        O701   1.315       .  A
C696        C697   1.397       .  A
C696        H707   1.081       .  S
C697        C706   1.351       .  A
C697        C698   1.377       .  A
C698        C699   1.413       .  A
C698        O704   1.328       .  A
C699        C700   1.413       .  A
C699        H708   1.082   1_655  S
C700        C703   1.372   1_655  A
O701        C702   1.327   1_655  A
C702        C703   1.398       .  A
C703        H709   1.083       .  S
O704        C705   1.338       .  A
C705        C706   1.395       .  A
C706        H710   1.078       .  S
C711        C716   1.378       .  A
C711        C712   1.404       .  A
C711        O717   1.315       .  A
C712        C713   1.401       .  A
C712        H723   1.084       .  S
C713        C722   1.366       .  A
C713        C714   1.379       .  A
C714        C715   1.407       .  A
C714        O720   1.317       .  A
C715        C716   1.404       .  A
C715        H724   1.084       .  S
C716        C719   1.368       .  A
O717        C718   1.333       .  A
C718        C719   1.397       .  A
C719        H725   1.082       .  S
O720        C721   1.333       .  A
C721        C722   1.389       .  A
C722        H726   1.083       .  S
C727        C732   1.379       .  A
C727        C728   1.401       .  A
C727        O733   1.318       .  A
C728        C729   1.401       .  A
C728        H739   1.083       .  S
C729        C738   1.357       .  A
C729        C730   1.379       .  A
C730        C731   1.411       .  A
C730        O736   1.327       .  A
C731        C732   1.411       .  A
C731        H740   1.083       .  S
C732        C735   1.370       .  A
O733        C734   1.331       .  A
C734        C735   1.396       .  A
C735        H741   1.083   1_455  S
O736        C737   1.335       .  A
C737        C738   1.393       .  A
C738        H742   1.083       .  S
C743        C748   1.380   1_556  A
C743        C744   1.408       .  A
C743        O749   1.319       .  A
C744        C745   1.406   1_556  A
C744        H755   1.083       .  S
C745        C754   1.369       .  A
C745        C746   1.378       .  A
C746        C747   1.402       .  A
C746        O752   1.315       .  A
C747        C748   1.400       .  A
C747        H756   1.083       .  S
C748        C751   1.362       .  A
O749        C750   1.333       .  A
C750        C751   1.391   1_556  A
C751        H757   1.083       .  S
O752        C753   1.332       .  A
C753        C754   1.398       .  A
C754        H758   1.082       .  S
C759        C764   1.378       .  A
C759        C760   1.403       .  A
C759        O765   1.315       .  A
C760        C761   1.401       .  A
C760        H771   1.082       .  S
C761        C770   1.364       .  A
C761        C762   1.379   1_554  A
C762        C763   1.410       .  A
C762        O768   1.320       .  A
C763        C764   1.407   1_556  A
C763        H772   1.081       .  S
C764        C767   1.371       .  A
O765        C766   1.333       .  A
C766        C767   1.399       .  A
C767        H773   1.081       .  S
O768        C769   1.335       .  A
C769        C770   1.390   1_556  A
C770        H774   1.083       .  S
C775        C780   1.380       .  A
C775        C776   1.403       .  A
C775        O781   1.321       .  A
C776        C777   1.404       .  A
C776        H787   1.082       .  S
C777        C786   1.359       .  A
C777        C778   1.378       .  A
C778        C779   1.410       .  A
C778        O784   1.326       .  A
C779        C780   1.410       .  A
C779        H788   1.081       .  S
C780        C783   1.367   1_655  A
O781        C782   1.332   1_655  A
C782        C783   1.397       .  A
C783        H789   1.082       .  S
O784        C785   1.336       .  A
C785        C786   1.397       .  A
C786        H790   1.081       .  S
C791        C796   1.381       .  A
C791        C792   1.402       .  A
C791        O797   1.317       .  A
C792        C793   1.400       .  A
C792        H803   1.084       .  S
C793        C802   1.361       .  A
C793        C794   1.380       .  A
C794        C795   1.403       .  A
C794        O800   1.316       .  A
C795        C796   1.401       .  A
C795        H804   1.084       .  S
C796        C799   1.362       .  A
O797        C798   1.330       .  A
C798        C799   1.391       .  A
C799        H805   1.083       .  S
O800        C801   1.332       .  A
C801        C802   1.392       .  A
C802        H806   1.083       .  S
C807        C812   1.380       .  A
C807        C808   1.404       .  A
C807        O813   1.319       .  A
C808        C809   1.403       .  A
C808        H819   1.081       .  S
C809        C818   1.362       .  A
C809        C810   1.380       .  A
C810        C811   1.406       .  A
C810        O816   1.320       .  A
C811        C812   1.405       .  A
C811        H820   1.081       .  S
C812        C815   1.365       .  A
O813        C814   1.331       .  A
C814        C815   1.393       .  A
C815        H821   1.082       .  S
O816        C817   1.333       .  A
C817        C818   1.392       .  A
C818        H822   1.082       .  S
C823        C828   1.381       .  A
C823        C824   1.402       .  A
C823        O829   1.320       .  A
C824        C825   1.402       .  A
C824        H835   1.084       .  S
C825        C834   1.359       .  A
C825        C826   1.380       .  A
C826        C827   1.405       .  A
C826        O832   1.321       .  A
C827        C828   1.405       .  A
C827        H836   1.085       .  S
C828        C831   1.362       .  A
O829        C830   1.330       .  A
C830        C831   1.394       .  A
C831        H837   1.084       .  S
O832        C833   1.333       .  A
C833        C834   1.393       .  A
C834        H838   1.083       .  S
C839        C844   1.379       .  A
C839        C840   1.410       .  A
C839        O845   1.324   1_455  A
C840        C841   1.409       .  A
C840        H851   1.081   1_455  S
C841        C850   1.370       .  A
C841        C842   1.378       .  A
C842        C843   1.399       .  A
C842        O848   1.314       .  A
C843        C844   1.398       .  A
C843        H852   1.081       .  S
C844        C847   1.357       .  A
O845        C846   1.335       .  A
C846        C847   1.390   1_655  A
C847        H853   1.082       .  S
O848        C849   1.330       .  A
C849        C850   1.399       .  A
C850        H854   1.081       .  S
C855        C860   1.380       .  A
C855        C856   1.410   1_565  A
C855        O861   1.325   1_565  A
C856        C857   1.409   1_545  A
C856        H867   1.084       .  S
C857        C866   1.369       .  A
C857        C858   1.379       .  A
C858        C859   1.401       .  A
C858        O864   1.317       .  A
C859        C860   1.400       .  A
C859        H868   1.083       .  S
C860        C863   1.359       .  A
O861        C862   1.335       .  A
C862        C863   1.391   1_545  A
C863        H869   1.084       .  S
O864        C865   1.331       .  A
C865        C866   1.398       .  A
C866        H870   1.083       .  S
C871        C876   1.380       .  A
C871        C872   1.402       .  A
C871        O877   1.318       .  A
C872        C873   1.402       .  A
C872        H883   1.084       .  S
C873        C882   1.360       .  A
C873        C874   1.381       .  A
C874        C875   1.404       .  A
C874        O880   1.319       .  A
C875        C876   1.403       .  A
C875        H884   1.083       .  S
C876        C879   1.362       .  A
O877        C878   1.331       .  A
C878        C879   1.394       .  A
C879        H885   1.082       .  S
O880        C881   1.331       .  A
C881        C882   1.391       .  A
C882        H886   1.084       .  S
C887        C892   1.381       .  A
C887        C888   1.402       .  A
C887        O893   1.319       .  A
C888        C889   1.402       .  A
C888        H899   1.081       .  S
C889        C898   1.358       .  A
C889        C890   1.381       .  A
C890        C891   1.403       .  A
C890        O896   1.320       .  A
C891        C892   1.403       .  A
C891        H900   1.082       .  S
C892        C895   1.360       .  A
O893        C894   1.330       .  A
C894        C895   1.392       .  A
C895        H901   1.083       .  S
O896        C897   1.330       .  A
C897        C898   1.392       .  A
C898        H902   1.082       .  S
C903        C908   1.380       .  A
C903        C904   1.404       .  A
C903        O909   1.320       .  A
C904        C905   1.404       .  A
C904        H915   1.085       .  S
C905        C914   1.362       .  A
C905        C906   1.380       .  A
C906        C907   1.403       .  A
C906        O912   1.319       .  A
C907        C908   1.402       .  A
C907        H916   1.084       .  S
C908        C911   1.361       .  A
O909        C910   1.332       .  A
C910        C911   1.391       .  A
C911        H917   1.083       .  S
O912        C913   1.331       .  A
C913        C914   1.395       .  A
C914        H918   1.084       .  S
C919        C924   1.381   1_554  A
C919        C920   1.401       .  A
C919        O925   1.322       .  A
C920        C921   1.403       .  A
C920        H931   1.083       .  S
C921        C930   1.354       .  A
C921        C922   1.377       .  A
C922        C923   1.410   1_554  A
C922        O928   1.329       .  A
C923        C924   1.412       .  A
C923        H932   1.082       .  S
C924        C927   1.365       .  A
O925        C926   1.330   1_554  A
C926        C927   1.398       .  A
C927        H933   1.083       .  S
O928        C929   1.337       .  A
C929        C930   1.398       .  A
C930        H934   1.084       .  S
C935        C940   1.378       .  A
C935        C936   1.404       .  A
C935        O941   1.317       .  A
C936        C937   1.402       .  A
C936        H947   1.083       .  S
C937        C946   1.364       .  A
C937        C938   1.379       .  A
C938        C939   1.410       .  A
C938        O944   1.322   1_556  A
C939        C940   1.408       .  A
C939        H948   1.082   1_556  S
C940        C943   1.371       .  A
O941        C942   1.334       .  A
C942        C943   1.398       .  A
C943        H949   1.081       .  S
O944        C945   1.335       .  A
C945        C946   1.392   1_554  A
C946        H950   1.083       .  S
C951        C956   1.379       .  A
C951        C952   1.406       .  A
C951        O957   1.318   1_545  A
C952        C953   1.404       .  A
C952        H963   1.084   1_545  S
C953        C962   1.368       .  A
C953        C954   1.379       .  A
C954        C955   1.404       .  A
C954        O960   1.316       .  A
C955        C956   1.402       .  A
C955        H964   1.085       .  S
C956        C959   1.365       .  A
O957        C958   1.332   1_565  A
C958        C959   1.391       .  A
C959        H965   1.084       .  S
O960        C961   1.333       .  A
C961        C962   1.394       .  A
C962        H966   1.082       .  S
C967        C972   1.380       .  A
C967        C968   1.402       .  A
C967        O973   1.311       .  A
C968        C969   1.398       .  A
C968        H979   1.082       .  S
C969        C978   1.363       .  A
C969        C970   1.379       .  A
C970        C971   1.410       .  A
C970        O976   1.319       .  A
C971        C972   1.406       .  A
C971        H980   1.082       .  S
C972        C975   1.373       .  A
O973        C974   1.330       .  A
C974        C975   1.392       .  A
C975        H981   1.082       .  S
O976        C977   1.335       .  A
C977        C978   1.392       .  A
C978        H982   1.081       .  S
C983        C988   1.379       .  A
C983        C984   1.412       .  A
C983        O989   1.323   1_554  A
C984        C985   1.410       .  A
C984        H995   1.081   1_554  S
C985        C994   1.373       .  A
C985        C986   1.377       .  A
C986        C987   1.405       .  A
C986        O992   1.317       .  A
C987        C988   1.403       .  A
C987        H996   1.083       .  S
C988        C991   1.365       .  A
O989        C990   1.336       .  A
C990        C991   1.393   1_556  A
C991        H997   1.083       .  S
O992        C993   1.335       .  A
C993        C994   1.399       .  A
C994        H998   1.081       .  S
C999       C1004   1.381       .  A
C999       C1000   1.397       .  A
C999       O1005   1.317       .  A
C1000      C1001   1.398       .  A
C1000      H1011   1.082       .  S
C1001      C1010   1.351       .  A
C1001      C1002   1.378       .  A
C1002      C1003   1.411       .  A
C1002      O1008   1.328       .  A
C1003      C1004   1.412       .  A
C1003      H1012   1.082   1_556  S
C1004      C1007   1.368   1_556  A
O1005      C1006   1.328       .  A
C1006      C1007   1.399   1_556  A
C1007      H1013   1.083       .  S
O1008      C1009   1.337       .  A
C1009      C1010   1.393       .  A
C1010      H1014   1.082       .  S
C1015      C1020   1.380       .  A
C1015      C1016   1.409       .  A
C1015      O1021   1.319   1_455  A
C1016      C1017   1.406       .  A
C1016      H1027   1.083   1_455  S
C1017      C1026   1.371       .  A
C1017      C1018   1.378       .  A
C1018      C1019   1.401       .  A
C1018      O1024   1.313       .  A
C1019      C1020   1.399       .  A
C1019      H1028   1.083       .  S
C1020      C1023   1.362       .  A
O1021      C1022   1.334       .  A
C1022      C1023   1.390   1_655  A
C1023      H1029   1.083       .  S
O1024      C1025   1.332       .  A
C1025      C1026   1.397       .  A
C1026      H1030   1.082       .  S
C1031      C1036   1.378       .  A
C1031      C1032   1.413   1_545  A
C1031      O1037   1.329       .  A
C1032      C1033   1.413       .  A
C1032      H1043   1.083       .  S
C1033      C1042   1.371       .  A
C1033      C1034   1.381   1_565  A
C1034      C1035   1.394       .  A
C1034      O1040   1.313       .  A
C1035      C1036   1.395       .  A
C1035      H1044   1.083       .  S
C1036      C1039   1.348       .  A
O1037      C1038   1.337       .  A
C1038      C1039   1.392       .  A
C1039      H1045   1.082       .  S
O1040      C1041   1.327   1_545  A
C1041      C1042   1.398       .  A
C1042      H1046   1.082       .  S
C1047      C1052   1.378       .  A
C1047      C1048   1.404       .  A
C1047      O1053   1.318       .  A
C1048      C1049   1.403       .  A
C1048      H1059   1.083       .  S
C1049      C1058   1.364       .  A
C1049      C1050   1.379       .  A
C1050      C1051   1.409       .  A
C1050      O1056   1.322   1_556  A
C1051      C1052   1.408       .  A
C1051      H1060   1.083   1_556  S
C1052      C1055   1.370       .  A
O1053      C1054   1.334       .  A
C1054      C1055   1.398       .  A
C1055      H1061   1.082       .  S
O1056      C1057   1.335   1_554  A
C1057      C1058   1.392       .  A
C1058      H1062   1.083       .  S
C1063      C1068   1.381       .  A
C1063      C1064   1.398       .  A
C1063      O1069   1.314       .  A
C1064      C1065   1.397       .  A
C1064      H1075   1.084       .  S
C1065      C1074   1.356       .  A
C1065      C1066   1.381       .  A
C1066      C1067   1.403       .  A
C1066      O1072   1.318       .  A
C1067      C1068   1.402       .  A
C1067      H1076   1.084       .  S
C1068      C1071   1.361       .  A
O1069      C1070   1.328       .  A
C1070      C1071   1.392       .  A
C1071      H1077   1.084       .  S
O1072      C1073   1.330       .  A
C1073      C1074   1.388       .  A
C1074      H1078   1.084       .  S
C1079      C1084   1.381       .  A
C1079      C1080   1.402       .  A
C1079      O1085   1.318       .  A
C1080      C1081   1.402       .  A
C1080      H1091   1.082       .  S
C1081      C1090   1.358       .  A
C1081      C1082   1.381       .  A
C1082      C1083   1.401       .  A
C1082      O1088   1.318       .  A
C1083      C1084   1.401       .  A
C1083      H1092   1.082       .  S
C1084      C1087   1.358       .  A
O1085      C1086   1.330       .  A
C1086      C1087   1.390       .  A
C1087      H1093   1.082       .  S
O1088      C1089   1.329       .  A
C1089      C1090   1.393       .  A
C1090      H1094   1.082       .  S
C1095      C1100   1.380       .  A
C1095      C1096   1.403       .  A
C1095      O1101   1.320       .  A
C1096      C1097   1.403       .  A
C1096      H1107   1.081       .  S
C1097      C1106   1.359       .  A
C1097      C1098   1.381       .  A
C1098      C1099   1.401       .  A
C1098      O1104   1.318       .  A
C1099      C1100   1.401       .  A
C1099      H1108   1.081       .  S
C1100      C1103   1.356       .  A
O1101      C1102   1.331       .  A
C1102      C1103   1.394       .  A
C1103      H1109   1.082       .  S
O1104      C1105   1.329       .  A
C1105      C1106   1.392       .  A
C1106      H1110   1.083       .  S
C1111      C1116   1.377       .  A
C1111      C1112   1.404       .  A
C1111      O1117   1.315       .  A
C1112      C1113   1.401       .  A
C1112      H1123   1.084       .  S
C1113      C1122   1.365       .  A
C1113      C1114   1.379   1_556  A
C1114      C1115   1.409       .  A
C1114      O1120   1.320       .  A
C1115      C1116   1.407   1_554  A
C1115      H1124   1.084       .  S
C1116      C1119   1.372       .  A
O1117      C1118   1.334       .  A
C1118      C1119   1.398       .  A
C1119      H1125   1.083       .  S
O1120      C1121   1.335       .  A
C1121      C1122   1.392   1_554  A
C1122      H1126   1.083       .  S
C1127      C1132   1.377       .  A
C1127      C1128   1.409       .  A
C1127      O1133   1.325       .  A
C1128      C1129   1.410   1_655  A
C1128      H1139   1.082   1_655  S
C1129      C1138   1.366       .  A
C1129      C1130   1.380   1_455  A
C1130      C1131   1.400       .  A
C1130      O1136   1.319       .  A
C1131      C1132   1.401       .  A
C1131      H1140   1.082       .  S
C1132      C1135   1.355       .  A
O1133      C1134   1.336       .  A
C1134      C1135   1.397       .  A
C1135      H1141   1.080       .  S
O1136      C1137   1.330   1_655  A
C1137      C1138   1.396       .  A
C1138      H1142   1.082       .  S
C1143      C1148   1.380       .  A
C1143      C1144   1.405       .  A
C1143      O1149   1.321       .  A
C1144      C1145   1.405       .  A
C1144      H1155   1.082       .  S
C1145      C1154   1.363       .  A
C1145      C1146   1.381       .  A
C1146      C1147   1.401       .  A
C1146      O1152   1.317       .  A
C1147      C1148   1.400       .  A
C1147      H1156   1.082       .  S
C1148      C1151   1.358       .  A
O1149      C1150   1.332       .  A
C1150      C1151   1.391       .  A
C1151      H1157   1.083       .  S
O1152      C1153   1.330       .  A
C1153      C1154   1.393       .  A
C1154      H1158   1.082       .  S
C1159      C1164   1.380       .  A
C1159      C1160   1.403       .  A
C1159      O1165   1.319       .  A
C1160      C1161   1.402       .  A
C1160      H1171   1.084       .  S
C1161      C1170   1.360       .  A
C1161      C1162   1.381       .  A
C1162      C1163   1.403       .  A
C1162      O1168   1.319       .  A
C1163      C1164   1.402       .  A
C1163      H1172   1.083       .  S
C1164      C1167   1.361       .  A
O1165      C1166   1.332       .  A
C1166      C1167   1.393       .  A
C1167      H1173   1.082       .  S
O1168      C1169   1.331       .  A
C1169      C1170   1.391       .  A
C1170      H1174   1.083       .  S
C1175      C1180   1.379       .  A
C1175      C1176   1.412       .  A
C1175      O1181   1.325   1_565  A
C1176      C1177   1.411       .  A
C1176      H1187   1.081   1_565  S
C1177      C1186   1.372       .  A
C1177      C1178   1.378       .  A
C1178      C1179   1.401       .  A
C1178      O1184   1.315       .  A
C1179      C1180   1.400       .  A
C1179      H1188   1.081       .  S
C1180      C1183   1.359       .  A
O1181      C1182   1.336   1_545  A
C1182      C1183   1.390       .  A
C1183      H1189   1.082       .  S
O1184      C1185   1.332       .  A
C1185      C1186   1.400       .  A
C1186      H1190   1.081       .  S
C1191      C1196   1.380       .  A
C1191      C1192   1.403       .  A
C1191      O1197   1.319       .  A
C1192      C1193   1.402       .  A
C1192      H1203   1.085       .  S
C1193      C1202   1.362       .  A
C1193      C1194   1.381       .  A
C1194      C1195   1.402       .  A
C1194      O1200   1.317       .  A
C1195      C1196   1.401       .  A
C1195      H1204   1.085       .  S
C1196      C1199   1.359       .  A
O1197      C1198   1.332       .  A
C1198      C1199   1.392       .  A
C1199      H1205   1.084       .  S
O1200      C1201   1.330       .  A
C1201      C1202   1.391       .  A
C1202      H1206   1.083       .  S
C1207      C1212   1.378       .  A
C1207      C1208   1.405       .  A
C1207      O1213   1.318       .  A
C1208      C1209   1.403       .  A
C1208      H1219   1.083       .  S
C1209      C1218   1.366       .  A
C1209      C1210   1.378       .  A
C1210      C1211   1.412       .  A
C1210      O1216   1.323       .  A
C1211      C1212   1.410       .  A
C1211      H1220   1.082       .  S
C1212      C1215   1.374       .  A
O1213      C1214   1.334       .  A
C1214      C1215   1.400       .  A
C1215      H1221   1.082       .  S
O1216      C1217   1.336       .  A
C1217      C1218   1.392       .  A
C1218      H1222   1.083       .  S
C1223      C1228   1.380       .  A
C1223      C1224   1.400       .  A
C1223      O1229   1.320       .  A
C1224      C1225   1.401       .  A
C1224      H1235   1.081       .  S
C1225      C1234   1.353       .  A
C1225      C1226   1.377       .  A
C1226      C1227   1.408       .  A
C1226      O1232   1.327       .  A
C1227      C1228   1.410       .  A
C1227      H1236   1.082       .  S
C1228      C1231   1.365       .  A
O1229      C1230   1.330       .  A
C1230      C1231   1.398       .  A
C1231      H1237   1.084       .  S
O1232      C1233   1.336       .  A
C1233      C1234   1.398       .  A
C1234      H1238   1.079       .  S
C1239      C1244   1.378       .  A
C1239      C1240   1.402       .  A
C1239      O1245   1.317       .  A
C1240      C1241   1.401       .  A
C1240      H1251   1.084       .  S
C1241      C1250   1.360       .  A
C1241      C1242   1.379       .  A
C1242      C1243   1.411       .  A
C1242      O1248   1.326       .  A
C1243      C1244   1.410       .  A
C1243      H1252   1.083       .  S
C1244      C1247   1.372       .  A
O1245      C1246   1.332       .  A
C1246      C1247   1.399       .  A
C1247      H1253   1.082       .  S
O1248      C1249   1.335       .  A
C1249      C1250   1.391       .  A
C1250      H1254   1.083       .  S
C1255      C1260   1.378       .  A
C1255      C1256   1.402       .  A
C1255      O1261   1.315       .  A
C1256      C1257   1.400       .  A
C1256      H1267   1.083       .  S
C1257      C1266   1.362       .  A
C1257      C1258   1.379       .  A
C1258      C1259   1.411       .  A
C1258      O1264   1.322       .  A
C1259      C1260   1.409       .  A
C1259      H1268   1.079       .  S
C1260      C1263   1.372       .  A
O1261      C1262   1.333       .  A
C1262      C1263   1.399       .  A
C1263      H1269   1.081       .  S
O1264      C1265   1.334       .  A
C1265      C1266   1.390       .  A
C1266      H1270   1.084       .  S
C1271      C1276   1.377       .  A
C1271      C1272   1.410       .  A
C1271      O1277   1.329       .  A
C1272      C1273   1.412       .  A
C1272      H1283   1.083       .  S
C1273      C1282   1.366       .  A
C1273      C1274   1.381       .  A
C1274      C1275   1.399       .  A
C1274      O1280   1.320       .  A
C1275      C1276   1.401       .  A
C1275      H1284   1.084       .  S
C1276      C1279   1.352       .  A
O1277      C1278   1.338       .  A
C1278      C1279   1.399       .  A
C1279      H1285   1.081       .  S
O1280      C1281   1.329       .  A
C1281      C1282   1.398       .  A
C1282      H1286   1.083       .  S
C1287      C1292   1.379       .  A
C1287      C1288   1.410       .  A
C1287      O1293   1.322       .  A
C1288      C1289   1.408       .  A
C1288      H1299   1.083       .  S
C1289      C1298   1.371       .  A
C1289      C1290   1.378       .  A
C1290      C1291   1.407       .  A
C1290      O1296   1.320       .  A
C1291      C1292   1.405       .  A
C1291      H1300   1.083       .  S
C1292      C1295   1.368       .  A
O1293      C1294   1.336       .  A
C1294      C1295   1.394       .  A
C1295      H1301   1.083       .  S
O1296      C1297   1.335       .  A
C1297      C1298   1.399       .  A
C1298      H1302   1.083       .  S
C1303      C1308   1.380       .  A
C1303      C1304   1.398       .  A
C1303      O1309   1.306       .  A
C1304      C1305   1.394       .  A
C1304      H1315   1.082   1_554  S
C1305      C1314   1.361       .  A
C1305      C1306   1.379       .  A
C1306      C1307   1.411       .  A
C1306      O1312   1.317       .  A
C1307      C1308   1.406       .  A
C1307      H1316   1.082       .  S
C1308      C1311   1.376       .  A
O1309      C1310   1.328       .  A
C1310      C1311   1.394       .  A
C1311      H1317   1.082       .  S
O1312      C1313   1.336       .  A
C1313      C1314   1.388       .  A
C1314      H1318   1.082       .  S
C1319      C1324   1.379       .  A
C1319      C1320   1.399       .  A
C1319      O1325   1.316       .  A
C1320      C1321   1.398       .  A
C1320      H1331   1.084       .  S
C1321      C1330   1.353       .  A
C1321      C1322   1.379       .  A
C1322      C1323   1.411       .  A
C1322      O1328   1.327       .  A
C1323      C1324   1.411       .  A
C1323      H1332   1.083       .  S
C1324      C1327   1.369       .  A
O1325      C1326   1.330       .  A
C1326      C1327   1.396       .  A
C1327      H1333   1.083       .  S
O1328      C1329   1.335       .  A
C1329      C1330   1.391       .  A
C1330      H1334   1.084       .  S
C1335      C1340   1.378       .  A
C1335      C1336   1.404       .  A
C1335      O1341   1.318       .  A
C1336      C1337   1.403       .  A
C1336      H1347   1.083       .  S
C1337      C1346   1.363       .  A
C1337      C1338   1.379       .  A
C1338      C1339   1.411       .  A
C1338      O1344   1.324       .  A
C1339      C1340   1.410       .  A
C1339      H1348   1.083       .  S
C1340      C1343   1.371       .  A
O1341      C1342   1.334       .  A
C1342      C1343   1.399       .  A
C1343      H1349   1.082       .  S
O1344      C1345   1.336       .  A
C1345      C1346   1.392       .  A
C1346      H1350   1.083       .  S
C1351      C1356   1.378       .  A
C1351      C1352   1.405       .  A
C1351      O1357   1.324       .  A
C1352      C1353   1.407       .  A
C1352      H1363   1.083       .  S
C1353      C1362   1.359       .  A
C1353      C1354   1.381       .  A
C1354      C1355   1.401       .  A
C1354      O1360   1.322       .  A
C1355      C1356   1.403       .  A
C1355      H1364   1.082       .  S
C1356      C1359   1.355       .  A
O1357      C1358   1.335       .  A
C1358      C1359   1.398       .  A
C1359      H1365   1.080       .  S
O1360      C1361   1.330       .  A
C1361      C1362   1.395       .  A
C1362      H1366   1.083       .  S
C1367      C1372   1.380       .  A
C1367      C1368   1.406       .  A
C1367      O1373   1.318       .  A
C1368      C1369   1.404       .  A
C1368      H1379   1.084       .  S
C1369      C1378   1.366       .  A
C1369      C1370   1.378       .  A
C1370      C1371   1.404       .  A
C1370      O1376   1.317       .  A
C1371      C1372   1.402       .  A
C1371      H1380   1.084       .  S
C1372      C1375   1.365       .  A
O1373      C1374   1.333       .  A
C1374      C1375   1.392       .  A
C1375      H1381   1.083       .  S
O1376      C1377   1.333       .  A
C1377      C1378   1.397       .  A
C1378      H1382   1.082       .  S
C1383      C1388   1.381       .  A
C1383      C1384   1.401       .  A
C1383      O1389   1.321       .  A
C1384      C1385   1.402       .  A
C1384      H1395   1.082       .  S
C1385      C1394   1.355       .  A
C1385      C1386   1.377       .  A
C1386      C1387   1.409       .  A
C1386      O1392   1.326       .  A
C1387      C1388   1.410       .  A
C1387      H1396   1.082       .  S
C1388      C1391   1.365       .  A
O1389      C1390   1.330       .  A
C1390      C1391   1.397       .  A
C1391      H1397   1.082       .  S
O1392      C1393   1.336       .  A
C1393      C1394   1.398       .  A
C1394      H1398   1.081       .  S
C1399      C1404   1.380       .  A
C1399      C1400   1.404       .  A
C1399      O1405   1.313       .  A
C1400      C1401   1.401       .  A
C1400      H1411   1.080       .  S
C1401      C1410   1.366       .  A
C1401      C1402   1.378       .  A
C1402      C1403   1.406       .  A
C1402      O1408   1.315       .  A
C1403      C1404   1.403       .  A
C1403      H1412   1.081       .  S
C1404      C1407   1.367       .  A
O1405      C1406   1.330       .  A
C1406      C1407   1.390       .  A
C1407      H1413   1.082       .  S
O1408      C1409   1.334       .  A
C1409      C1410   1.393       .  A
C1410      H1414   1.081       .  S
C1415      C1420   1.380       .  A
C1415      C1416   1.399       .  A
C1415      O1421   1.316       .  A
C1416      C1417   1.399       .  A
C1416      H1427   1.083       .  S
C1417      C1426   1.355       .  A
C1417      C1418   1.379       .  A
C1418      C1419   1.410       .  A
C1418      O1424   1.326       .  A
C1419      C1420   1.410       .  A
C1419      H1428   1.084       .  S
C1420      C1423   1.368       .  A
O1421      C1422   1.329       .  A
C1422      C1423   1.395       .  A
C1423      H1429   1.083       .  S
O1424      C1425   1.335       .  A
C1425      C1426   1.391       .  A
C1426      H1430   1.083       .  S
C1431      C1436   1.377       .  A
C1431      C1432   1.411       .  A
C1431      O1437   1.326       .  A
C1432      C1433   1.411       .  A
C1432      H1443   1.083       .  S
C1433      C1442   1.371       .  A
C1433      C1434   1.380       .  A
C1434      C1435   1.398       .  A
C1434      O1440   1.315       .  A
C1435      C1436   1.398       .  A
C1435      H1444   1.083       .  S
C1436      C1439   1.354       .  A
O1437      C1438   1.337       .  A
C1438      C1439   1.395       .  A
C1439      H1445   1.081       .  S
O1440      C1441   1.329       .  A
C1441      C1442   1.396       .  A
C1442      H1446   1.083       .  S
C1447      C1452   1.381       .  A
C1447      C1448   1.397       .  A
C1447      O1453   1.315       .  A
C1448      C1449   1.397       .  A
C1448      H1459   1.083       .  S
C1449      C1458   1.351       .  A
C1449      C1450   1.377       .  A
C1450      C1451   1.412       .  A
C1450      O1456   1.329       .  A
C1451      C1452   1.413       .  A
C1451      H1460   1.083       .  S
C1452      C1455   1.370       .  A
O1453      C1454   1.328       .  A
C1454      C1455   1.397       .  A
C1455      H1461   1.083       .  S
O1456      C1457   1.338       .  A
C1457      C1458   1.396       .  A
C1458      H1462   1.081       .  S
C1463      C1468   1.380       .  A
C1463      C1464   1.402       .  A
C1463      O1469   1.322       .  A
C1464      C1465   1.403       .  A
C1464      H1475   1.082       .  S
C1465      C1474   1.356       .  A
C1465      C1466   1.378       .  A
C1466      C1467   1.406       .  A
C1466      O1472   1.324       .  A
C1467      C1468   1.408       .  A
C1467      H1476   1.082       .  S
C1468      C1471   1.362       .  A
O1469      C1470   1.331       .  A
C1470      C1471   1.395       .  A
C1471      H1477   1.082       .  S
O1472      C1473   1.335       .  A
C1473      C1474   1.399       .  A
C1474      H1478   1.080       .  S
C1479      C1484   1.377       .  A
C1479      C1480   1.407       .  A
C1479      O1485   1.324       .  A
C1480      C1481   1.408       .  A
C1480      H1491   1.082       .  S
C1481      C1490   1.364       .  A
C1481      C1482   1.380       .  A
C1482      C1483   1.402       .  A
C1482      O1488   1.320       .  A
C1483      C1484   1.403       .  A
C1483      H1492   1.083       .  S
C1484      C1487   1.358       .  A
O1485      C1486   1.335       .  A
C1486      C1487   1.399       .  A
C1487      H1493   1.081       .  S
O1488      C1489   1.331       .  A
C1489      C1490   1.396       .  A
C1490      H1494   1.083       .  S
C1495      C1500   1.379       .  A
C1495      C1496   1.407       .  A
C1495      O1501   1.325       .  A
C1496      C1497   1.408       .  A
C1496      H1507   1.083       .  S
C1497      C1506   1.365       .  A
C1497      C1498   1.380       .  A
C1498      C1499   1.400       .  A
C1498      O1504   1.318       .  A
C1499      C1500   1.400       .  A
C1499      H1508   1.084       .  S
C1500      C1503   1.355       .  A
O1501      C1502   1.333       .  A
C1502      C1503   1.393       .  A
C1503      H1509   1.083       .  S
O1504      C1505   1.330       .  A
C1505      C1506   1.394       .  A
C1506      H1510   1.083       .  S
C1511      C1516   1.380       .  A
C1511      C1512   1.404       .  A
C1511      O1517   1.313       .  A
C1512      C1513   1.400       .  A
C1512      H1523   1.083       .  S
C1513      C1522   1.366       .  A
C1513      C1514   1.378       .  A
C1514      C1515   1.403       .  A
C1514      O1520   1.312       .  A
C1515      C1516   1.399       .  A
C1515      H1524   1.083       .  S
C1516      C1519   1.366       .  A
O1517      C1518   1.330       .  A
C1518      C1519   1.388       .  A
C1519      H1525   1.083       .  S
O1520      C1521   1.333       .  A
C1521      C1522   1.394       .  A
C1522      H1526   1.082       .  S
C1527      C1532   1.379       .  A
C1527      C1528   1.407       .  A
C1527      O1533   1.320       .  A
C1528      C1529   1.406       .  A
C1528      H1539   1.082       .  S
C1529      C1538   1.368       .  A
C1529      C1530   1.378       .  A
C1530      C1531   1.405       .  A
C1530      O1536   1.317       .  A
C1531      C1532   1.403       .  A
C1531      H1540   1.082       .  S
C1532      C1535   1.365       .  A
O1533      C1534   1.333       .  A
C1534      C1535   1.393       .  A
C1535      H1541   1.082       .  S
O1536      C1537   1.334       .  A
C1537      C1538   1.397       .  A
C1538      H1542   1.081       .  S
C1543      C1548   1.380       .  A
C1543      C1544   1.403       .  A
C1543      O1549   1.319       .  A
C1544      C1545   1.403       .  A
C1544      H1555   1.084       .  S
C1545      C1554   1.361       .  A
C1545      C1546   1.378       .  A
C1546      C1547   1.407       .  A
C1546      O1552   1.323       .  A
C1547      C1548   1.407       .  A
C1547      H1556   1.084       .  S
C1548      C1551   1.365       .  A
O1549      C1550   1.331       .  A
C1550      C1551   1.395       .  A
C1551      H1557   1.084       .  S
O1552      C1553   1.336       .  A
C1553      C1554   1.397       .  A
C1554      H1558   1.081       .  S
C1559      C1564   1.380       .  A
C1559      C1560   1.409       .  A
C1559      O1565   1.322       .  A
C1560      C1561   1.408       .  A
C1560      H1571   1.082       .  S
C1561      C1570   1.369       .  A
C1561      C1562   1.378       .  A
C1562      C1563   1.401       .  A
C1562      O1568   1.315       .  A
C1563      C1564   1.400       .  A
C1563      H1572   1.082       .  S
C1564      C1567   1.360       .  A
O1565      C1566   1.334       .  A
C1566      C1567   1.390       .  A
C1567      H1573   1.083       .  S
O1568      C1569   1.331       .  A
C1569      C1570   1.398       .  A
C1570      H1574   1.081       .  S
C1575      C1580   1.378       .  A
C1575      C1576   1.401       .  A
C1575      O1581   1.315       .  A
C1576      C1577   1.400       .  A
C1576      H1587   1.082       .  S
C1577      C1586   1.359       .  A
C1577      C1578   1.380       .  A
C1578      C1579   1.408       .  A
C1578      O1584   1.322       .  A
C1579      C1580   1.407       .  A
C1579      H1588   1.082       .  S
C1580      C1583   1.367       .  A
O1581      C1582   1.332       .  A
C1582      C1583   1.398       .  A
C1583      H1589   1.082       .  S
O1584      C1585   1.333       .  A
C1585      C1586   1.390       .  A
C1586      H1590   1.083       .  S
