geometry optimzed in LAMMPS
_audit_creation_date              2020-11-30 
_audit_creation_method            'lammps2cif' 
_symmetry_space_group_name_H-M    'P1' 
_symmetry_Int_Tables_number       1 
_symmetry_cell_setting            triclinic 
loop_ 
_symmetry_equiv_pos_as_xyz 
  x,y,z 
_cell_length_a                    54.2897577 
_cell_length_b                    54.90668329500605 
_cell_length_c                    34.629117770206584 
_cell_angle_alpha                 88.69915535270133 
_cell_angle_beta                  90.32656874807044 
_cell_angle_gamma                 131.45713379482723 
loop_ 
_atom_site_label 
_atom_site_type_symbol 
_atom_site_fract_x 
_atom_site_fract_y 
_atom_site_fract_z 
_atom_site_charge 
O1          O  0.74828703  0.25431449  0.28684073    -0.71700
O2          O  0.68913977  0.19371649  0.20152441    -0.72700
O3          O  0.69402468  0.18589312  0.28154930    -0.61300
O4          O  0.74231171  0.26138622  0.20580378    -0.69700
O5          O  0.77777822  0.25483076  0.19433868    -0.69300
O6          O  0.72882358  0.17864312  0.26903030    -0.60500
O7          O  0.72496653  0.18779682  0.18895885    -0.73000
O8          O  0.78289873  0.24684428  0.27438529    -0.71800
Cu9        Cu  0.71725705  0.22412820  0.24458471     1.04600
Cu10       Cu  0.75480136  0.21675866  0.23139461     1.04300
C11         C  0.77498873  0.26023877  0.29392461     0.94500
C12         C  0.69849431  0.18197331  0.18113638     0.93600
C13         C  0.70340029  0.17002218  0.28671671     0.85800
C14         C  0.76715135  0.26942147  0.18735190     0.92100
N15         N  0.57370728  0.78378887  0.48818829    -0.26000
N16         N  0.54584063  0.77235867  0.47174457    -0.33900
C17         C  0.54377107  0.75926402  0.43784728     0.02300
C18         C  0.57163574  0.76339162  0.43266767     0.08300
C19         C  0.58988385  0.77883903  0.46528796    -0.04800
H20         H  0.52413957  0.74814409  0.41754536     0.09000
H21         H  0.61340357  0.78608160  0.47198157     0.10200
Cu22       Cu  0.51527627  0.78050032  0.49489812     0.44200
Cu23       Cu  0.59768955  0.81386031  0.03970515     0.42000
Cu24       Cu  0.53595102  0.80964281  0.09398216     0.43900
N25         N  0.50424965  0.80668558  0.52310481    -0.33400
N26         N  0.51065480  0.81532985  0.05482939    -0.27700
C27         C  0.51345005  0.84129204  0.05931164    -0.03800
C28         C  0.51478065  0.85328408  0.52972987     0.08400
C29         C  0.50638945  0.82978634  0.50398662     0.02200
H30         H  0.52329541  0.85536615  0.08530123     0.09900
H31         H  0.50960894  0.83345572  0.47297470     0.09000
N32         N  0.57224556  0.81131143  0.11874343    -0.34900
N33         N  0.59550568  0.81513931  0.09904364    -0.27100
C34         C  0.61145903  0.81019985  0.12291232    -0.02300
C35         C  0.59718781  0.80213377  0.15901078     0.06300
C36         C  0.57264012  0.80332182  0.15562122     0.04400
H37         H  0.62901166  0.80819227  0.11348619     0.09500
H38         H  0.55445692  0.79593153  0.17737437     0.08400
N39         N  0.48303221  0.72576803  0.04718478    -0.26000
N40         N  0.50690032  0.75053242  0.06800119    -0.33900
C41         C  0.49784753  0.74271924  0.10557018     0.02300
C42         C  0.46744416  0.71169757  0.10869197     0.08300
C43         C  0.45875247  0.70155139  0.07094773    -0.04800
H44         H  0.51080385  0.75917308  0.12906702     0.09000
H45         H  0.43517362  0.67968415  0.06128516     0.10200
Cu46       Cu  0.54723347  0.79641373  0.04331465     0.44200
Cu47       Cu  0.48122812  0.72978819  0.98774636     0.42000
Cu48       Cu  0.53485736  0.80859826  0.44161374     0.43900
N49         N  0.57504813  0.84275055  0.01522634    -0.33400
N50         N  0.56927029  0.84448665  0.48028049    -0.27700
C51         C  0.57900088  0.87410248  0.47563846    -0.03800
C52         C  0.58605740  0.88950110  0.00854579     0.08400
C53         C  0.58368241  0.86844123  0.03447682     0.02200
H54         H  0.57330334  0.88120913  0.45008813     0.09900
H55         H  0.58061781  0.86799023  0.06539652     0.09000
N56         N  0.49389984  0.76700487  0.41471751    -0.34900
N57         N  0.47193543  0.73819832  0.43227491    -0.27100
C58         C  0.45327453  0.71556100  0.40555154    -0.02300
C59         C  0.46377211  0.73073002  0.36956121     0.06300
C60         C  0.48909532  0.76333099  0.37634188     0.04400
H61         H  0.43366231  0.68988798  0.41192937     0.09500
H62         H  0.50411089  0.78268515  0.35487729     0.08400
N63         N  0.57813586  0.08547078  0.46783476    -0.26000
N64         N  0.60292637  0.08849593  0.45468877    -0.33900
C65         C  0.61298397  0.10467315  0.42041768     0.02300
C66         C  0.59304538  0.11108829  0.41079977     0.08300
C67         C  0.57127775  0.09878090  0.44166726    -0.04800
H68         H  0.63348623  0.11160219  0.40352994     0.09000
H69         H  0.55271806  0.10049454  0.44557797     0.10200
Cu70       Cu  0.62042660  0.06815739  0.48234490     0.44200
Cu71       Cu  0.55523430  0.06465348  0.02159006     0.42000
Cu72       Cu  0.59644925  0.04664261  0.08566632     0.43900
N73         N  0.62628152  0.04012836  0.51694309    -0.33400
N74         N  0.61828327  0.03352686  0.05295850    -0.27700
C75         C  0.61047161  0.00512556  0.06124082    -0.03800
C76         C  0.61271230  0.99273557  0.53023769     0.08400
C77         C  0.62345985  0.01605462  0.50169840     0.02200
H78         H  0.59679047  0.99068080  0.08699576     0.09900
H79         H  0.62155029  0.01200885  0.47097705     0.09000
N80         N  0.56739997  0.05654647  0.10483658    -0.34900
N81         N  0.55149787  0.06151050  0.08167116    -0.27100
C82         C  0.54026418  0.07287969  0.10246422     0.03700
C83         C  0.55028937  0.07619810  0.14017008     0.06300
C84         C  0.56715944  0.06531152  0.14077024     0.04400
H85         H  0.52926476  0.08195943  0.09007276     0.09500
H86         H  0.58087702  0.06655005  0.16463034     0.08400
N87         N  0.66577640  0.11361891  0.03105974    -0.26000
N88         N  0.63676715  0.10071816  0.04597387    -0.33900
C89         C  0.64216169  0.11654911  0.07858779     0.02300
C90         C  0.67563214  0.13951046  0.08463814     0.08300
C91         C  0.68977667  0.13718971  0.05385129    -0.04800
H92         H  0.62333955  0.11094659  0.09760785     0.09000
H93         H  0.71571697  0.15101794  0.04884192     0.10200
Cu94       Cu  0.59079638  0.05727452  0.02657513     0.44200
Cu95       Cu  0.67456818  0.10117344  0.98021678     0.42000
Cu96       Cu  0.59481107  0.03674581  0.43000803     0.43900
N97         N  0.55988424  0.01043280  0.00227629    -0.33400
N98         N  0.56044751  0.00267018  0.47154481    -0.27700
C99         C  0.55012507  0.97271071  0.47054327    -0.03800
C100        C  0.54391700  0.96097688  0.00106289     0.08400
C101        C  0.54702114  0.98343416  0.02382464     0.02200
H102        H  0.55528751  0.96453890  0.44628607     0.09900
H103        H  0.54753753  0.98328451  0.05505267     0.09000
N104        N  0.64040135  0.06958305  0.40197450    -0.34900
N105        N  0.66853607  0.09004156  0.42044214    -0.27100
C106        C  0.69274223  0.11072174  0.39475235    -0.02300
C107        C  0.67934777  0.10363255  0.35846903     0.06300
C108        C  0.64607845  0.07736037  0.36396700     0.04400
H109        H  0.71728024  0.13229926  0.40251228     0.09500
H110        H  0.62702998  0.06696437  0.34262144     0.08400
C111        C  0.57396218  0.90642258  0.01632352     0.03500
C112        C  0.53972454  0.88962630  0.01613452     0.03500
C113        C  0.52985248  0.90771465  0.01342569    -0.17000
C114        C  0.55333937  0.94192179  0.01348421     0.03500
C115        C  0.58699068  0.95789653  0.01963140     0.03500
C116        C  0.59696815  0.94012335  0.01962387    -0.17000
H117        H  0.62287971  0.95266731  0.02162556     0.05500
H118        H  0.50400723  0.89521813  0.01085030     0.05500
O119        O  0.32729616  0.43754772  0.26537676    -0.71700
O120        O  0.29739333  0.46775963  0.18575457    -0.72700
O121        O  0.29422001  0.46162806  0.26790488    -0.61300
O122        O  0.32955625  0.44255007  0.18299349    -0.69700
O123        O  0.28143940  0.39203342  0.18155652    -0.69300
O124        O  0.24533261  0.41221200  0.26188598    -0.60500
O125        O  0.24993022  0.41721124  0.18057585    -0.73000
O126        O  0.27812281  0.38792895  0.26476495    -0.71800
Cu127      Cu  0.31385855  0.45413245  0.22560527     1.04600
Cu128      Cu  0.26210401  0.40056633  0.22213696     1.04300
C129        C  0.30717358  0.40823959  0.27844436     0.94500
C130        C  0.26919150  0.44729793  0.17031230     0.93600
C131        C  0.26388400  0.43989540  0.27760361     0.85800
C132        C  0.31067471  0.41418478  0.16864385     0.92100
O133        O  0.39917826  0.67608753  0.27876691    -0.71700
O134        O  0.32169841  0.61747649  0.21083486    -0.72700
O135        O  0.33091435  0.62850440  0.29188174    -0.61300
O136        O  0.39112035  0.66561736  0.19810432    -0.69700
O137        O  0.39346949  0.62687738  0.20409170    -0.69300
O138        O  0.33457636  0.59072395  0.29867723    -0.60500
O139        O  0.32429752  0.57897335  0.21835420    -0.73000
O140        O  0.40302667  0.63843861  0.28627740    -0.71800
Cu141      Cu  0.36062699  0.64821104  0.24446699     1.04600
Cu142      Cu  0.36408761  0.60748239  0.25192760     1.04300
C143        C  0.41239413  0.66603219  0.29460890     0.94500
C144        C  0.31044962  0.58890871  0.20417099     0.93600
C145        C  0.32379161  0.60410479  0.31046724     0.85800
C146        C  0.40166738  0.65201596  0.18624084     0.92100
N147        N  0.21128631  0.44723028  0.02174893    -0.26000
N148        N  0.21373654  0.46952939  0.04046847    -0.33900
C149        C  0.22457916  0.47109617  0.07651239     0.02300
C150        C  0.22829953  0.44842465  0.08017291     0.08300
C151        C  0.21958270  0.43388657  0.04500532    -0.04800
H152        H  0.22782358  0.48609693  0.09918017     0.09000
H153        H  0.21898114  0.41458798  0.03684887     0.10200
Cu154      Cu  0.19583976  0.49157547  0.01665315     0.44200
Cu155      Cu  0.20412416  0.44006880  0.46375189     0.42000
Cu156      Cu  0.17479714  0.47419145  0.41009869     0.43900
N157        N  0.16302445  0.49402938  0.98590346    -0.33400
N158        N  0.15934871  0.49087003  0.44797262    -0.27700
C159        C  0.12918299  0.48028121  0.44222612    -0.03800
C160        C  0.11208457  0.47501490  0.97728172     0.08400
C161        C  0.13709104  0.48749446  0.00376973     0.02200
H162        H  0.11530997  0.46766907  0.41647543     0.09900
H163        H  0.13366609  0.48468220  0.03480116     0.09000
N164        N  0.18515469  0.44762317  0.38496335    -0.34900
N165        N  0.19606540  0.43574351  0.40519901    -0.27100
C166        C  0.20778685  0.42672423  0.38104691    -0.02300
C167        C  0.20396480  0.43294328  0.34381739     0.06300
C168        C  0.18920668  0.44585046  0.34705933     0.04400
H169        H  0.22053894  0.41864711  0.39004601     0.09500
H170        H  0.18497810  0.45626841  0.32396857     0.08400
N171        N  0.24505750  0.54184657  0.45357324    -0.26000
N172        N  0.23225754  0.51279436  0.44169270    -0.33900
C173        C  0.24780420  0.51692801  0.40868282     0.02300
C174        C  0.26999608  0.54946007  0.39834286     0.08300
C175        C  0.26793807  0.56476989  0.42767678    -0.04800
H176        H  0.24346842  0.49788202  0.39263943     0.09000
H177        H  0.28261181  0.59063975  0.43065217     0.10200
Cu178      Cu  0.19013056  0.46839599  0.46741787     0.44200
Cu179      Cu  0.23433897  0.54935716  0.50719536     0.42000
Cu180      Cu  0.17048116  0.47032237  0.07177995     0.43900
N181        N  0.14453552  0.43424607  0.49719322    -0.33400
N182        N  0.13526990  0.43299862  0.03509896    -0.27700
C183        C  0.10389837  0.41950699  0.03990563    -0.03800
C184        C  0.09274806  0.41287479  0.50426131     0.08400
C185        C  0.11594815  0.41904032  0.47859396     0.02200
H186        H  0.09551351  0.42383273  0.06492862     0.09900
H187        H  0.11449141  0.41979007  0.44747648     0.09000
N188        N  0.20728963  0.51747086  0.09159724    -0.34900
N189        N  0.22549932  0.54388087  0.06888574    -0.27100
C190        C  0.24875331  0.56959834  0.08999874    -0.02300
C191        C  0.24576222  0.55902734  0.12747734     0.06300
C192        C  0.21912048  0.52589230  0.12774572     0.04400
H193        H  0.26867659  0.59359731  0.07803439     0.09500
H194        H  0.21039734  0.50886131  0.15171485     0.08400
N195        N  0.82493769  0.34341526  0.43540636    -0.26000
N196        N  0.85116517  0.34904756  0.42222374    -0.33900
C197        C  0.84297656  0.33287624  0.38896212     0.02300
C198        C  0.81011922  0.31643469  0.38136332     0.08300
C199        C  0.79971218  0.32380858  0.41142364    -0.04800
H200        H  0.85962339  0.33295982  0.37181749     0.09000
H201        H  0.77508101  0.31444951  0.41642941     0.10200
Cu202      Cu  0.89718423  0.37886284  0.45059569     0.44200
Cu203      Cu  0.82202842  0.35640137  0.48893734     0.42000
Cu204      Cu  0.89775324  0.38361858  0.01640273     0.43900
N205        N  0.95025772  0.41228603  0.46155547    -0.33400
N206        N  0.94892863  0.41438608  0.00033066    -0.27700
C207        C  0.97809762  0.42497141  0.01297329    -0.03800
C208        C  0.99909218  0.42990973  0.47937830     0.08400
C209        C  0.97849647  0.42088899  0.44806548     0.02200
H210        H  0.98275973  0.42288293  0.04275323     0.09900
H211        H  0.98094685  0.41426877  0.42007892     0.09000
N212        N  0.85703150  0.35646716  0.05388569    -0.34900
N213        N  0.82853874  0.34823912  0.04633663    -0.27100
C214        C  0.80772604  0.33050803  0.07633349    -0.02300
C215        C  0.82412398  0.32748898  0.10408985     0.06300
C216        C  0.85508982  0.34400434  0.08875242     0.04400
H217        H  0.78192717  0.31838158  0.07637892     0.09500
H218        H  0.87449530  0.34584419  0.10149116     0.08400
N219        N  0.92477046  0.42999085  0.41617450    -0.26000
N220        N  0.92190174  0.40758623  0.39608292    -0.33900
C221        C  0.91597150  0.40998074  0.35895364     0.02300
C222        C  0.91613727  0.43527402  0.35555852     0.08300
C223        C  0.92207223  0.44743940  0.39190486    -0.04800
H224        H  0.91024172  0.39349002  0.33663049     0.09000
H225        H  0.92160141  0.46589174  0.40081565     0.10200
Cu226      Cu  0.92040265  0.36930941  0.42175347     0.44200
Cu227      Cu  0.92637844  0.43621292  0.47796531     0.42000
Cu228      Cu  0.92152360  0.37674667  0.05025729     0.43900
N229        N  0.93162209  0.35224475  0.47062384    -0.33400
N230        N  0.92889482  0.35309265  0.00869760    -0.27700
C231        C  0.95452291  0.35670489  0.02148534    -0.03800
C232        C  0.97690829  0.36368654  0.49205549     0.08400
C233        C  0.95708258  0.35468632  0.46050666     0.02200
H234        H  0.96424587  0.36541468  0.05012255     0.09900
H235        H  0.96598794  0.35994051  0.43095592     0.09000
N236        N  0.92403436  0.41669620  0.06650751    -0.34900
N237        N  0.92483495  0.43620826  0.04149988    -0.27100
C238        C  0.92013026  0.45371796  0.06098159    -0.02300
C239        C  0.91508038  0.44435080  0.09932956     0.06300
C240        C  0.91787556  0.42110912  0.10204969     0.04400
H241        H  0.91706261  0.46953324  0.04753817     0.09500
H242        H  0.91294505  0.40649424  0.12736490     0.08400
C243        C  0.06920138  0.41723114  0.49439442     0.03500
C244        C  0.08003098  0.44855158  0.48542833     0.03500
C245        C  0.05667302  0.45179854  0.47967208    -0.17000
C246        C  0.02286284  0.42471873  0.48251630     0.03500
C247        C  0.01226118  0.39322281  0.48975476     0.03500
C248        C  0.03551478  0.39006616  0.49629266    -0.17000
H249        H  0.02732001  0.36629207  0.50311212     0.05500
H250        H  0.06488364  0.47558245  0.47292270     0.05500
O251        O  0.55991835  0.19483867  0.29901355    -0.71700
O252        O  0.55221453  0.13328982  0.22774975    -0.72700
O253        O  0.55061188  0.13771488  0.31012791    -0.61300
O254        O  0.56195901  0.19135283  0.21807630    -0.69700
O255        O  0.61577449  0.22013618  0.22009231    -0.69300
O256        O  0.60459356  0.16756518  0.31214503    -0.60500
O257        O  0.60606944  0.16259293  0.23101549    -0.73000
O258        O  0.61388851  0.22451018  0.30179349    -0.71800
Cu259      Cu  0.55425360  0.16315166  0.26360414     1.04600
Cu260      Cu  0.61193722  0.19473238  0.26621948     1.04300
C261        C  0.58801269  0.21921120  0.31173578     0.94500
C262        C  0.57794773  0.13815823  0.21829506     0.93600
C263        C  0.57584349  0.14457623  0.32601150     0.85800
C264        C  0.59099486  0.21461821  0.20503477     0.92100
O265        O  0.83067188  0.41328661  0.18962599    -0.71700
O266        O  0.79731581  0.43208611  0.27768996    -0.72700
O267        O  0.79498113  0.43473442  0.19594746    -0.61300
O268        O  0.83230559  0.41001004  0.27062639    -0.69700
O269        O  0.87961776  0.46114241  0.26938980    -0.69300
O270        O  0.84206483  0.48602311  0.19443513    -0.60500
O271        O  0.84496801  0.48299458  0.27682491    -0.73000
O272        O  0.87739246  0.46478739  0.18869767    -0.71800
Cu273      Cu  0.81209289  0.42074577  0.23342394     1.04600
Cu274      Cu  0.86256660  0.47553968  0.23232311     1.04300
C275        C  0.85967307  0.43599269  0.17610705     0.94500
C276        C  0.81632606  0.46070519  0.29132591     0.93600
C277        C  0.81244850  0.46399930  0.18326067     0.85800
C278        C  0.86207347  0.43157996  0.28121708     0.92100
O279        O  0.62261767  0.71047313  0.32364890    -0.71700
O280        O  0.60814637  0.75415042  0.24638538    -0.72700
O281        O  0.60179190  0.74545763  0.32815303    -0.61300
O282        O  0.62768577  0.71730927  0.24162211    -0.69700
O283        O  0.57578389  0.67135664  0.23769773    -0.69300
O284        O  0.54958665  0.70089858  0.32062771    -0.60500
O285        O  0.55626733  0.70886092  0.23902636    -0.73000
O286        O  0.57022717  0.66524220  0.31943901    -0.71800
Cu287      Cu  0.61686780  0.73341869  0.28495185     1.04600
Cu288      Cu  0.56113841  0.68496188  0.27884287     1.04300
C289        C  0.59855169  0.68141815  0.33474783     0.94500
C290        C  0.58019774  0.73887972  0.23072521     0.93600
C291        C  0.57147401  0.72722609  0.33821349     0.85800
C292        C  0.60578267  0.68947872  0.22665068     0.92100
N293        N  0.36643158  0.40535196  0.03250325    -0.26000
N294        N  0.39329182  0.41606808  0.05080747    -0.33900
C295        C  0.39246721  0.42409947  0.08684867     0.02300
C296        C  0.36343036  0.41765748  0.09176999     0.08300
C297        C  0.34742674  0.40578924  0.05674207    -0.04800
H298        H  0.41171359  0.43408789  0.10782176     0.09000
H299        H  0.32448143  0.39940468  0.04890443     0.10200
Cu300      Cu  0.42996853  0.41976111  0.02561293     0.44200
Cu301      Cu  0.36343322  0.40343966  0.47543796     0.42000
Cu302      Cu  0.42712773  0.41030995  0.42418124     0.43900
N303        N  0.46413612  0.42101458  0.99745235    -0.33400
N304        N  0.46012817  0.41281454  0.46103346    -0.27700
C305        C  0.48505887  0.41376497  0.45230347    -0.03800
C306        C  0.50628450  0.42427736  0.98606390     0.08400
C307        C  0.48900926  0.42512029  0.01418145     0.02200
H308        H  0.49224594  0.41364226  0.42328823     0.09900
H309        H  0.49419787  0.42855869  0.04474946     0.09000
N310        N  0.38986770  0.40687484  0.39675616    -0.34900
N311        N  0.36608439  0.40257090  0.41578667    -0.27100
C312        C  0.34666907  0.40182794  0.39048993    -0.02300
C313        C  0.35878683  0.40627425  0.35354582     0.06300
C314        C  0.38633661  0.40965110  0.35864728     0.04400
H315        H  0.32659734  0.40051283  0.39864398     0.09500
H316        H  0.40314267  0.41472814  0.33630206     0.08400
N317        N  0.59346055  0.62045700  0.47578055    -0.26000
N318        N  0.57143234  0.59086555  0.46228384    -0.33900
C319        C  0.56426031  0.59249434  0.42579756     0.02300
C320        C  0.58278638  0.62468238  0.41556479     0.08300
C321        C  0.60108658  0.64197745  0.44785686    -0.04800
H322        H  0.54676163  0.57168910  0.40810669     0.09000
H323        H  0.61746770  0.66798160  0.45143197     0.10200
Cu324      Cu  0.55404812  0.54962601  0.49181893     0.44200
Cu325      Cu  0.63447286  0.64248279  0.04081471     0.42000
Cu326      Cu  0.59062216  0.56248825  0.08780103     0.43900
N327        N  0.55647682  0.51668544  0.51425938    -0.33400
N328        N  0.57815884  0.52693672  0.04873523    -0.27700
C329        C  0.57400779  0.49998222  0.05444897    -0.03800
C330        C  0.56035241  0.47923285  0.51801630     0.08400
C331        C  0.55112886  0.49270779  0.49492782     0.02200
H332        H  0.57703443  0.49241673  0.08184415     0.09900
H333        H  0.54266499  0.48664103  0.46546462     0.09000
N334        N  0.60332241  0.60333111  0.11549081    -0.34900
N335        N  0.62098125  0.63250211  0.09868154    -0.27100
C336        C  0.62313264  0.65279407  0.12262632    -0.02300
C337        C  0.60570338  0.63573843  0.15617010     0.06300
C338        C  0.59340109  0.60442864  0.15058924     0.04400
H339        H  0.63429228  0.67742991  0.11479950     0.09500
H340        H  0.57723434  0.58363522  0.16999655     0.08400
N341        N  0.61429981  0.29152305  0.45403121    -0.26000
N342        N  0.59997822  0.29852674  0.43126350    -0.33900
C343        C  0.59838763  0.28862702  0.39538840     0.02300
C344        C  0.61267940  0.27506009  0.39574516     0.08300
C345        C  0.62264529  0.27750617  0.43325616    -0.04800
H346        H  0.58701639  0.29049750  0.37114847     0.09000
H347        H  0.63317678  0.26781285  0.44517944     0.10200
Cu348      Cu  0.58211253  0.31998047  0.45078692     0.44200
Cu349      Cu  0.61366076  0.29592916  0.01419892     0.42000
Cu350      Cu  0.57063378  0.31699048  0.05643982     0.43900
N351        N  0.56884593  0.34303068  0.47896108    -0.33400
N352        N  0.56410812  0.34256520  0.01845078    -0.27700
C353        C  0.56167781  0.36450833  0.02803917    -0.03800
C354        C  0.55957721  0.37564868  0.49281643     0.08400
C355        C  0.56537989  0.36334577  0.46330650     0.02200
H356        H  0.56311785  0.37193849  0.05724052     0.09900
H357        H  0.56900301  0.37030181  0.43300630     0.09000
N358        N  0.58114302  0.29148414  0.08705291    -0.34900
N359        N  0.59881925  0.28558317  0.07140855    -0.27100
C360        C  0.60089717  0.26797353  0.09643777    -0.02300
C361        C  0.58350538  0.26216257  0.12967001     0.06300
C362        C  0.57117643  0.27735412  0.12267182     0.04400
H363        H  0.61257115  0.25847079  0.08989123     0.09500
H364        H  0.55552537  0.27747577  0.14170398     0.08400
N365        N  0.78517852  0.50300220  0.03884962    -0.26000
N366        N  0.76118104  0.49357678  0.06273275    -0.33900
C367        C  0.76883976  0.49102609  0.09876175     0.02300
C368        C  0.79918279  0.49941845  0.09746017     0.08300
C369        C  0.80892815  0.50720489  0.05911457    -0.04800
H370        H  0.75267350  0.48196535  0.12362994     0.09000
H371        H  0.83019116  0.51245329  0.04634144     0.10200
Cu372      Cu  0.71685567  0.47953858  0.04437774     0.44200
Cu373      Cu  0.77922314  0.49854727  0.47925649     0.42000
Cu374      Cu  0.69903301  0.45598325  0.44093851     0.43900
N375        N  0.67330144  0.46097843  0.01729311    -0.33400
N376        N  0.66604832  0.45211462  0.47742084    -0.27700
C377        C  0.63611713  0.44100490  0.46808230    -0.03800
C378        C  0.62390400  0.44335668  0.00387687     0.08400
C379        C  0.64830010  0.45803883  0.03138849     0.02200
H380        H  0.62530873  0.43257661  0.43982713     0.09900
H381        H  0.64788181  0.46591604  0.05953958     0.09000
N382        N  0.73645396  0.46303573  0.41048874    -0.34900
N383        N  0.76635176  0.47986207  0.42439676    -0.27100
C384        C  0.78472425  0.47911661  0.39947682    -0.02300
C385        C  0.76547313  0.46084630  0.36820995     0.06300
C386        C  0.73498925  0.45097453  0.37622490     0.04400
H387        H  0.80975289  0.48980605  0.40473484     0.09500
H388        H  0.71317886  0.43562410  0.35878702     0.08400
C389        C  0.56458298  0.45743920  0.00969930     0.03500
C390        C  0.53632696  0.42898833  0.99229896     0.03500
C391        C  0.53561886  0.40338654  0.98483179    -0.17000
C392        C  0.56309865  0.40652368  0.99254967     0.03500
C393        C  0.59256398  0.43658857  0.00482132     0.03500
C394        C  0.59263003  0.46122815  0.01483181    -0.17000
H395        H  0.61506213  0.48405520  0.02514228     0.05500
H396        H  0.51308555  0.38040463  0.97502951     0.05500
C397        C  0.60357182  0.66760868  0.36715911    -0.15200
C398        C  0.57998164  0.63683695  0.37928412    -0.30400
H399        H  0.62649456  0.68369704  0.38280318     0.13800
H400        H  0.55763787  0.62024810  0.36276453     0.14400
C401        C  0.59735603  0.64682062  0.18822569    -0.15200
C402        C  0.61531176  0.67852086  0.19598229    -0.30400
H403        H  0.57590818  0.62833786  0.20601256     0.13800
H404        H  0.63799448  0.69694148  0.17998676     0.14400
C405        C  0.79761828  0.47171678  0.15551264    -0.15200
C406        C  0.81530202  0.49532095  0.12818929    -0.30400
H407        H  0.77096559  0.45547562  0.15531499     0.13800
H408        H  0.84165291  0.50959484  0.12598150     0.14400
C409        C  0.80612125  0.46870646  0.32459144    -0.15200
C410        C  0.77454717  0.45177831  0.33468393    -0.30400
H411        H  0.82548272  0.49023798  0.34039565     0.13800
H412        H  0.75500443  0.43152843  0.31742401     0.14400
C413        C  0.58994995  0.24081969  0.33861332    -0.15200
C414        C  0.61384274  0.25782883  0.36480397    -0.30400
H415        H  0.56952284  0.24018235  0.33947298     0.13800
H416        H  0.63264189  0.25609469  0.36624265     0.14400
C417        C  0.59663875  0.23532558  0.17191392    -0.15200
C418        C  0.57693828  0.24151801  0.16363547    -0.30400
H419        H  0.61884007  0.24717374  0.15480034     0.13800
H420        H  0.55612454  0.23185258  0.18240982     0.14400
C421        C  0.90562984  0.44407887  0.32320324    -0.15200
C422        C  0.87589826  0.42198232  0.30763081    -0.30400
H423        H  0.92007433  0.46978901  0.31670351     0.13800
H424        H  0.86049770  0.39653203  0.31651543     0.14400
C425        C  0.90186311  0.45214091  0.12845252    -0.15200
C426        C  0.87322373  0.42856954  0.14673369    -0.30400
H427        H  0.91453771  0.47756197  0.13269694     0.13800
H428        H  0.85958513  0.40325046  0.14013251     0.14400
C429        C  0.28150032  0.56724014  0.17944809    -0.15200
C430        C  0.27062286  0.57872041  0.15728615    -0.30400
H431        H  0.27052198  0.54210276  0.17720323     0.13800
H432        H  0.28330966  0.60443918  0.15728967     0.14400
C433        C  0.30336590  0.59168307  0.34618609    -0.15200
C434        C  0.29109440  0.56329440  0.36323494    -0.30400
H435        H  0.29790536  0.60576541  0.35825148     0.13800
H436        H  0.29509812  0.54846547  0.34974910     0.14400
C437        C  0.32162974  0.40674961  0.13572345    -0.15200
C438        C  0.35338888  0.42462402  0.12626036    -0.30400
H439        H  0.30286005  0.38576677  0.11873372     0.13800
H440        H  0.37240822  0.44415922  0.14467413     0.14400
C441        C  0.31689820  0.39821043  0.31106669    -0.15200
C442        C  0.34842346  0.41248752  0.31757988    -0.30400
H443        H  0.29771452  0.37918254  0.33084625     0.13800
H444        H  0.36730422  0.42972264  0.29633470     0.14400
C445        C  0.21835028  0.43153626  0.30917402    -0.15200
C446        C  0.25027459  0.44618485  0.30822869    -0.30400
H447        H  0.20245587  0.41741341  0.28503378     0.13800
H448        H  0.26645105  0.46222335  0.33124413     0.14400
C449        C  0.23605467  0.43800075  0.11428967    -0.15200
C450        C  0.25923066  0.45866403  0.13992371    -0.30400
H451        H  0.22463028  0.41262780  0.11589167     0.13800
H452        H  0.27281306  0.48453151  0.13662133     0.14400
C453        C  0.57580165  0.11575469  0.19243649    -0.15200
C454        C  0.54984496  0.09496887  0.16967656    -0.30400
H455        H  0.59724864  0.11809722  0.19007935     0.13800
H456        H  0.52950611  0.09447468  0.16959976     0.14400
C457        C  0.57162221  0.12616461  0.36116425    -0.15200
C458        C  0.59638763  0.12882250  0.37549377    -0.30400
H459        H  0.54766461  0.10998093  0.37535118     0.13800
H460        H  0.61977805  0.14363525  0.36003920     0.14400
C461        C  0.44934099  0.71556969  0.33214899    -0.15200
C462        C  0.43628516  0.68504948  0.32558183    -0.30400
H463        H  0.44730454  0.72892703  0.31076291     0.13800
H464        H  0.44005909  0.67252560  0.34607302     0.14400
C465        C  0.44623220  0.69728435  0.14388804    -0.15200
C466        C  0.42307213  0.66510210  0.15125782    -0.30400
H467        H  0.45052645  0.71397440  0.16513790     0.13800
H468        H  0.42052656  0.64820612  0.13204089     0.14400
C469        C  0.57558394  0.75620035  0.20295032    -0.15200
C470        C  0.60119672  0.78635039  0.18984299    -0.30400
H471        H  0.55107776  0.74366756  0.19197054     0.13800
H472        H  0.62607038  0.79806555  0.19844096     0.14400
C473        C  0.58174563  0.75539610  0.39900265    -0.15200
C474        C  0.56112719  0.73596853  0.37063731    -0.30400
H475        H  0.60688548  0.76518328  0.39818271     0.13800
H476        H  0.53545943  0.72449479  0.37239845     0.14400
C477        C  0.78253436  0.29461689  0.15632710    -0.15200
C478        C  0.81066543  0.30627420  0.13900870    -0.30400
H479        H  0.76973374  0.30251615  0.14634538     0.13800
H480        H  0.82412218  0.29940757  0.15020889     0.14400
C481        C  0.79733841  0.28280251  0.32467368    -0.15200
C482        C  0.78885355  0.29460248  0.34958036    -0.30400
H483        H  0.82097291  0.28923481  0.32732363     0.13800
H484        H  0.76470930  0.28715844  0.34753304     0.14400
C485        C  0.69536061  0.12688302  0.32555668    -0.15200
C486        C  0.68450447  0.14175628  0.31374030    -0.30400
H487        H  0.71900019  0.13566865  0.31546972     0.13800
H488        H  0.66209947  0.13439278  0.32643505     0.14400
C489        C  0.67906610  0.16212744  0.14765421    -0.15200
C490        C  0.69338201  0.15945533  0.11862604    -0.30400
H491        H  0.65344968  0.15080840  0.14616793     0.13800
H492        H  0.71949015  0.17240885  0.11975141     0.14400
O493        O  0.75225913  0.25969118  0.78339145    -0.71700
O494        O  0.69504372  0.19875266  0.69773519    -0.72700
O495        O  0.69930360  0.19113692  0.77783701    -0.61300
O496        O  0.74717967  0.26651368  0.70242587    -0.69700
O497        O  0.78337375  0.26074282  0.69190983    -0.69300
O498        O  0.73525240  0.18510962  0.76689979    -0.60500
O499        O  0.73135615  0.19335186  0.68594870    -0.73000
O500        O  0.78808899  0.25359736  0.77218898    -0.71800
Cu501      Cu  0.72226276  0.22928617  0.74091587     1.04600
Cu502      Cu  0.76077702  0.22297062  0.72894167     1.04300
C503        C  0.77922425  0.26638799  0.79122112     0.94500
C504        C  0.70462938  0.18701966  0.67782298     0.93600
C505        C  0.70940853  0.17601420  0.78395515     0.85800
C506        C  0.77240379  0.27495730  0.68459742     0.92100
N507        N  0.58315102  0.79213419  0.98653112    -0.26000
N508        N  0.55462694  0.77873866  0.97026571    -0.33900
C509        C  0.55257608  0.76426164  0.93778047     0.02300
C510        C  0.58090434  0.76908324  0.93340466     0.08300
C511        C  0.59970166  0.78687721  0.96488697    -0.04800
H512        H  0.53246381  0.75156874  0.91794353     0.09000
H513        H  0.62354700  0.79502482  0.97196907     0.10200
Cu514      Cu  0.52182295  0.78470538  0.99162951     0.44200
Cu515      Cu  0.58892490  0.80384489  0.54222603     0.42000
Cu516      Cu  0.53353653  0.80629990  0.59881410     0.43900
N517        N  0.50728074  0.80860441  0.01758760    -0.33400
N518        N  0.50920442  0.81384766  0.56032615    -0.27700
C519        C  0.51388852  0.84082797  0.56528827    -0.03800
C520        C  0.51487804  0.85377063  0.02345156     0.08400
C521        C  0.50856335  0.83099658  0.99793120     0.02200
H522        H  0.52496737  0.85506741  0.59105285     0.09900
H523        H  0.51285625  0.83510587  0.96706237     0.09000
N524        N  0.56838654  0.80520514  0.62251852    -0.34900
N525        N  0.58989798  0.80702031  0.60156300    -0.27100
C526        C  0.60644245  0.80233283  0.62463672    -0.02300
C527        C  0.59432171  0.79641294  0.66169458     0.06300
C528        C  0.57027333  0.79848008  0.65951912     0.04400
H529        H  0.62310186  0.79937834  0.61438099     0.09500
H530        H  0.55372198  0.79306432  0.68246219     0.08400
N531        N  0.47330784  0.72499686  0.55009089    -0.26000
N532        N  0.49935618  0.74827745  0.57018274    -0.33900
C533        C  0.49161126  0.74065577  0.60806976     0.02300
C534        C  0.45977414  0.71145140  0.61194535     0.08300
C535        C  0.44887647  0.70202298  0.57455839    -0.04800
H536        H  0.50685300  0.75614222  0.63152956     0.09000
H537        H  0.42412538  0.68158944  0.56581399     0.10200
Cu538      Cu  0.54175639  0.79296463  0.54547601     0.44200
Cu539      Cu  0.46942891  0.72821511  0.49096832     0.42000
Cu540      Cu  0.54178445  0.81184450  0.93797778     0.43900
N541        N  0.57139782  0.83944730  0.51737691    -0.33400
N542        N  0.57371339  0.84776218  0.97783240    -0.27700
C543        C  0.58176853  0.87659002  0.97286070    -0.03800
C544        C  0.58514182  0.88766752  0.51139969     0.08400
C545        C  0.58216878  0.86591331  0.53679465     0.02200
H546        H  0.57622796  0.88326872  0.94672778     0.09900
H547        H  0.58002554  0.86577858  0.56785313     0.09000
N548        N  0.50050073  0.76960075  0.91251733    -0.34900
N549        N  0.48031511  0.74064349  0.93022351    -0.27100
C550        C  0.45930411  0.71817915  0.90446884    -0.02300
C551        C  0.46621519  0.73351529  0.86898551     0.06300
C552        C  0.49209244  0.76614556  0.87506825     0.04400
H553        H  0.44022204  0.69249295  0.91126074     0.09500
H554        H  0.50464839  0.78573220  0.85364794     0.08400
N555        N  0.57696234  0.08402588  0.96717874    -0.26000
N556        N  0.60316760  0.08915048  0.95485800    -0.33900
C557        C  0.61374577  0.10648541  0.92143396     0.02300
C558        C  0.59279604  0.11154741  0.91150364     0.08300
C559        C  0.56979634  0.09717145  0.94125072    -0.04800
H560        H  0.63524315  0.11504087  0.90534041     0.09000
H561        H  0.55013098  0.09735993  0.94466585     0.10200
Cu562      Cu  0.62214519  0.07002977  0.98154508     0.44200
Cu563      Cu  0.55832042  0.06821458  0.52337122     0.42000
Cu564      Cu  0.59863793  0.04806224  0.58768548     0.43900
N565        N  0.62668731  0.04101508  0.01582780    -0.33400
N566        N  0.61938448  0.03383378  0.55449727    -0.27700
C567        C  0.61248614  0.00594876  0.56362224    -0.03800
C568        C  0.61173488  0.99292859  0.02762761     0.08400
C569        C  0.62397776  0.01720138  0.99997158     0.02200
H570        H  0.59996667  0.99229512  0.59018945     0.09900
H571        H  0.62322283  0.01414793  0.96910606     0.09000
N572        N  0.57083446  0.05965279  0.60663277    -0.34900
N573        N  0.55539648  0.06525456  0.58351879    -0.27100
C574        C  0.54464113  0.07703070  0.60438638     0.03700
C575        C  0.55450229  0.08000279  0.64205579     0.06300
C576        C  0.57082203  0.06853060  0.64261699     0.04400
H577        H  0.53388824  0.08639612  0.59210241     0.09500
H578        H  0.58411257  0.06917803  0.66656953     0.08400
N579        N  0.66623089  0.11352922  0.52997066    -0.26000
N580        N  0.63790516  0.10122718  0.54643745    -0.33900
C581        C  0.64481676  0.11809149  0.57865375     0.02300
C582        C  0.67856364  0.14107997  0.58294026     0.08300
C583        C  0.69125065  0.13765352  0.55141614    -0.04800
H584        H  0.62687562  0.11320082  0.59869403     0.09000
H585        H  0.71693460  0.15115950  0.54496985     0.10200
Cu586      Cu  0.59109166  0.05714057  0.52936507     0.44200
Cu587      Cu  0.67240034  0.09910174  0.47877058     0.42000
Cu588      Cu  0.59965803  0.04090334  0.92702509     0.43900
N589        N  0.55909615  0.00921009  0.50771025    -0.33400
N590        N  0.56314520  0.00519727  0.96621771    -0.27700
C591        C  0.55241218  0.97508767  0.96438154    -0.03800
C592        C  0.54383490  0.96004414  0.50773592     0.08400
C593        C  0.54774185  0.98308181  0.53019632     0.02200
H594        H  0.55863944  0.96757781  0.94049586     0.09900
H595        H  0.54978889  0.98399929  0.56131200     0.09000
N596        N  0.64617734  0.07602662  0.90130155    -0.34900
N597        N  0.67353535  0.09567013  0.92135556    -0.27100
C598        C  0.69862490  0.11791753  0.89735321    -0.02300
C599        C  0.68655688  0.11277349  0.86053894     0.06300
C600        C  0.65321989  0.08592964  0.86392707     0.04400
H601        H  0.72281267  0.13900047  0.90680358     0.09500
H602        H  0.63501090  0.07624261  0.84162247     0.08400
C603        C  0.57402279  0.90540564  0.52034276     0.03500
C604        C  0.53988560  0.88897675  0.52176131     0.03500
C605        C  0.53024727  0.90722434  0.51990040    -0.17000
C606        C  0.55381844  0.94135550  0.51935030     0.03500
C607        C  0.58765623  0.95734835  0.52374566     0.03500
C608        C  0.59741800  0.93929587  0.52282376    -0.17000
H609        H  0.62333872  0.95171486  0.52339476     0.05500
H610        H  0.50436659  0.89483920  0.51848209     0.05500
O611        O  0.32987621  0.44150934  0.76733401    -0.71700
O612        O  0.29916124  0.47261437  0.68992039    -0.72700
O613        O  0.29497928  0.46363211  0.77207589    -0.61300
O614        O  0.33307147  0.44924977  0.68509270    -0.69700
O615        O  0.28559258  0.39838609  0.68188144    -0.69300
O616        O  0.24676883  0.41413824  0.76346192    -0.60500
O617        O  0.25271967  0.42183081  0.68211719    -0.73000
O618        O  0.28117838  0.39162631  0.76470696    -0.71800
Cu619      Cu  0.31600231  0.45857158  0.72880377     1.04600
Cu620      Cu  0.26500197  0.40474107  0.72295442     1.04300
C621        C  0.31001143  0.41178889  0.77899936     0.94500
C622        C  0.27156925  0.45214712  0.67315188     0.93600
C623        C  0.26453125  0.44108112  0.78079718     0.85800
C624        C  0.31481645  0.42133774  0.66959694     0.92100
O625        O  0.39447381  0.67753261  0.78331982    -0.71700
O626        O  0.31607037  0.61896509  0.71663424    -0.72700
O627        O  0.32619050  0.62924454  0.79786368    -0.61300
O628        O  0.38504137  0.66712991  0.70294382    -0.69700
O629        O  0.38745270  0.62834185  0.70750954    -0.69300
O630        O  0.33042161  0.59177251  0.80274941    -0.60500
O631        O  0.31900076  0.58059301  0.72266891    -0.73000
O632        O  0.39865215  0.64000288  0.78880626    -0.71800
Cu633      Cu  0.35528211  0.64951891  0.74991492     1.04600
Cu634      Cu  0.35910341  0.60892028  0.75556992     1.04300
C635        C  0.40844679  0.66772615  0.79734725     0.94500
C636        C  0.30518684  0.59069246  0.70895862     0.93600
C637        C  0.31942506  0.60467744  0.81551390     0.85800
C638        C  0.39525003  0.65343291  0.69019939     0.92100
N639        N  0.21876488  0.45377690  0.51996509    -0.26000
N640        N  0.21972664  0.47504352  0.53903203    -0.33900
C641        C  0.23032537  0.47664874  0.57527252     0.02300
C642        C  0.23565595  0.45513400  0.57867007     0.08300
C643        C  0.22806876  0.44128603  0.54308625    -0.04800
H644        H  0.23216247  0.49077115  0.59817863     0.09000
H645        H  0.22848653  0.42268782  0.53473257     0.10200
Cu646      Cu  0.20043358  0.49568948  0.51517690     0.44200
Cu647      Cu  0.19743777  0.43428437  0.96534783     0.42000
Cu648      Cu  0.17144133  0.47122330  0.91102828     0.43900
N649        N  0.16665917  0.49704516  0.48517620    -0.33400
N650        N  0.15601657  0.48806056  0.94861401    -0.27700
C651        C  0.12611743  0.47801143  0.94242232    -0.03800
C652        C  0.11529808  0.47708008  0.47729031     0.08400
C653        C  0.14059747  0.48997780  0.50347116     0.02200
H654        H  0.11238630  0.46557689  0.91653517     0.09900
H655        H  0.13745797  0.48723310  0.53453774     0.09000
N656        N  0.18217017  0.44497122  0.88600673    -0.34900
N657        N  0.19203397  0.43218588  0.90646274    -0.27100
C658        C  0.20444492  0.42368720  0.88265062    -0.02300
C659        C  0.20211354  0.43117842  0.84539857     0.06300
C660        C  0.18755011  0.44429027  0.84826640     0.04400
H661        H  0.21664875  0.41509925  0.89202299     0.09500
H662        H  0.18443286  0.45564271  0.82520780     0.08400
N663        N  0.23932805  0.53830268  0.95599058    -0.26000
N664        N  0.22779070  0.50972576  0.94392472    -0.33900
C665        C  0.24401432  0.51473804  0.91116428     0.02300
C666        C  0.26543800  0.54740701  0.90136257     0.08300
C667        C  0.26215394  0.56180898  0.93063747    -0.04800
H668        H  0.24042900  0.49614768  0.89489083     0.09000
H669        H  0.27584781  0.58747357  0.93388739     0.10200
Cu670      Cu  0.18604716  0.46479558  0.96878661     0.44200
Cu671      Cu  0.22736287  0.54484289  0.00912306     0.42000
Cu672      Cu  0.17476508  0.47439490  0.56964033     0.43900
N673        N  0.14032876  0.43104828  0.99824181    -0.33400
N674        N  0.13970427  0.43618612  0.53412855    -0.27700
C675        C  0.10821668  0.42215553  0.53951112    -0.03800
C676        C  0.08882239  0.41054355  0.00440549     0.08400
C677        C  0.11204734  0.41636170  0.97916601     0.02200
H678        H  0.09993279  0.42644814  0.56467932     0.09900
H679        H  0.11095738  0.41726582  0.94801393     0.09000
N680        N  0.21008818  0.52166653  0.58928285    -0.34900
N681        N  0.22954303  0.54819012  0.56689123    -0.27100
C682        C  0.25104938  0.57386571  0.58912094    -0.02300
C683        C  0.24547344  0.56305785  0.62701691     0.06300
C684        C  0.21923834  0.52990624  0.62623194     0.04400
H685        H  0.27156071  0.59801157  0.57807676     0.09500
H686        H  0.20902562  0.51271222  0.65031389     0.08400
N687        N  0.82321122  0.34509031  0.93582107    -0.26000
N688        N  0.85018214  0.35225170  0.92248741    -0.33900
C689        C  0.84338157  0.33790608  0.88814569     0.02300
C690        C  0.81066773  0.32109962  0.87967266     0.08300
C691        C  0.79882074  0.32636829  0.91048669    -0.04800
H692        H  0.86083362  0.33920680  0.87102035     0.09000
H693        H  0.77371464  0.31575135  0.91524199     0.10200
Cu694      Cu  0.89539447  0.38090329  0.95172339     0.44200
Cu695      Cu  0.81844746  0.35394998  0.99140331     0.42000
Cu696      Cu  0.90195488  0.38746638  0.51412651     0.43900
N697        N  0.94781751  0.41243352  0.96330652    -0.33400
N698        N  0.95253160  0.41697797  0.49813857    -0.27700
C699        C  0.98190140  0.42810297  0.51077148    -0.03800
C700        C  0.99612464  0.42881124  0.98113998     0.08400
C701        C  0.97631518  0.42173252  0.94964919     0.02200
H702        H  0.98718292  0.42768995  0.54083584     0.09900
H703        H  0.97938625  0.41678085  0.92084903     0.09000
N704        N  0.86143196  0.36041907  0.55122831    -0.34900
N705        N  0.83289268  0.35206833  0.54376391    -0.27100
C706        C  0.81234554  0.33470217  0.57397159    -0.02300
C707        C  0.82909575  0.33224470  0.60176058     0.06300
C708        C  0.85982301  0.34840826  0.58622483     0.04400
H709        H  0.78651190  0.32244597  0.57415838     0.09500
H710        H  0.87933818  0.35045076  0.59900075     0.08400
N711        N  0.92344614  0.43139652  0.91755506    -0.26000
N712        N  0.92044046  0.40921946  0.89684322    -0.33900
C713        C  0.91527388  0.41268046  0.85976638     0.02300
C714        C  0.91597820  0.43838729  0.85718233     0.08300
C715        C  0.92151377  0.44972166  0.89394608    -0.04800
H716        H  0.90947422  0.39653008  0.83692816     0.09000
H717        H  0.92104400  0.46802508  0.90357016     0.10200
Cu718      Cu  0.91755471  0.37007310  0.92238894     0.44200
Cu719      Cu  0.92359726  0.43499447  0.97937129     0.42000
Cu720      Cu  0.92492965  0.37986343  0.54893622     0.43900
N721        N  0.92847409  0.35165438  0.96986193    -0.33400
N722        N  0.93251680  0.35531615  0.50923369    -0.27700
C723        C  0.95833733  0.35954689  0.52265571    -0.03800
C724        C  0.97347737  0.36218907  0.99049194     0.08400
C725        C  0.95408639  0.35460716  0.95896037     0.02200
H726        H  0.96838378  0.36944748  0.55085674     0.09900
H727        H  0.96334360  0.36110189  0.92951102     0.09000
N728        N  0.92683949  0.41937095  0.56566339    -0.34900
N729        N  0.92739762  0.43859271  0.54044357    -0.27100
C730        C  0.92117304  0.45508145  0.55965183    -0.02300
C731        C  0.91523695  0.44522496  0.59802263     0.06300
C732        C  0.91941866  0.42297394  0.60100470     0.04400
H733        H  0.91767464  0.47048426  0.54592751     0.09500
H734        H  0.91455104  0.40838340  0.62631477     0.08400
C735        C  0.06560487  0.41521722  0.99403860     0.03500
C736        C  0.07672273  0.44667046  0.98520370     0.03500
C737        C  0.05358219  0.45026899  0.97988105    -0.17000
C738        C  0.01971701  0.42334534  0.98286844     0.03500
C739        C  0.00886637  0.39167045  0.98924295     0.03500
C740        C  0.03188845  0.38820088  0.99558127    -0.17000
H741        H  0.02348357  0.36429025  0.00200615     0.05500
H742        H  0.06199609  0.47419246  0.97359727     0.05500
O743        O  0.56016420  0.19609422  0.79973784    -0.71700
O744        O  0.55499414  0.13582672  0.72936860    -0.72700
O745        O  0.55115954  0.13925060  0.81131604    -0.61300
O746        O  0.56456140  0.19359888  0.71895958    -0.69700
O747        O  0.61836717  0.22273039  0.72289737    -0.69300
O748        O  0.60513894  0.16946939  0.81499633    -0.60500
O749        O  0.60880587  0.16537509  0.73426881    -0.73000
O750        O  0.61410005  0.22613725  0.80442824    -0.71800
Cu751      Cu  0.55580474  0.16506292  0.76464379     1.04600
Cu752      Cu  0.61346759  0.19699223  0.76920795     1.04300
C753        C  0.58782199  0.22041566  0.81336696     0.94500
C754        C  0.58101393  0.14096135  0.72083654     0.93600
C755        C  0.57615278  0.14611769  0.82791626     0.85800
C756        C  0.59384693  0.21702490  0.70672230     0.92100
O757        O  0.83073809  0.41430132  0.68993241    -0.71700
O758        O  0.79727606  0.43418352  0.77732710    -0.72700
O759        O  0.79376078  0.43467578  0.69581329    -0.61300
O760        O  0.83288087  0.41271755  0.77114838    -0.69700
O761        O  0.87980990  0.46409786  0.76921889    -0.69300
O762        O  0.84053438  0.48612637  0.69269992    -0.60500
O763        O  0.84441868  0.48539345  0.77473102    -0.73000
O764        O  0.87714027  0.46591991  0.68798594    -0.71800
Cu765      Cu  0.81196798  0.42217588  0.73355251     1.04600
Cu766      Cu  0.86202748  0.47718649  0.73106790     1.04300
C767        C  0.85967771  0.43694823  0.67601428     0.94500
C768        C  0.81599144  0.46320969  0.78977975     0.93600
C769        C  0.81070194  0.46366894  0.68247985     0.85800
C770        C  0.86258065  0.43470685  0.78162836     0.92100
O771        O  0.62307142  0.70388501  0.82373915    -0.71700
O772        O  0.60926343  0.75135914  0.75064618    -0.72700
O773        O  0.60628292  0.74252710  0.83247994    -0.61300
O774        O  0.62575542  0.71210694  0.74149511    -0.69700
O775        O  0.57300802  0.66754049  0.73885682    -0.69300
O776        O  0.55339050  0.69872169  0.82774827    -0.60500
O777        O  0.55642201  0.70720707  0.74653018    -0.73000
O778        O  0.57010753  0.65982261  0.81989940    -0.71800
Cu779      Cu  0.61799250  0.72901199  0.78711439     1.04600
Cu780      Cu  0.56142567  0.68181251  0.78306668     1.04300
C781        C  0.59855735  0.67451648  0.83379280     0.94500
C782        C  0.58063072  0.73690812  0.73736101     0.93600
C783        C  0.57651301  0.72522224  0.84429762     0.85800
C784        C  0.60252959  0.68481554  0.72630183     0.92100
N785        N  0.37017122  0.41266310  0.53405003    -0.26000
N786        N  0.39485994  0.41894256  0.55321787    -0.33900
C787        C  0.39434201  0.42654237  0.58968450     0.02300
C788        C  0.36774670  0.42449434  0.59376065     0.08300
C789        C  0.35291856  0.41563716  0.55794992    -0.04800
H790        H  0.41194337  0.43295004  0.61158229     0.09000
H791        H  0.33179967  0.41257360  0.54954426     0.10200
Cu792      Cu  0.42799536  0.41714643  0.52822812     0.44200
Cu793      Cu  0.36006329  0.39524919  0.97392851     0.42000
Cu794      Cu  0.42999938  0.41219360  0.92274242     0.43900
N795        N  0.45957652  0.41515699  0.49891852    -0.33400
N796        N  0.46463593  0.41775902  0.95980115    -0.27700
C797        C  0.49012912  0.41943431  0.95177298    -0.03800
C798        C  0.50067955  0.41694154  0.48638590     0.08400
C799        C  0.48373049  0.41772344  0.51509436     0.02200
H800        H  0.49687632  0.41797298  0.92314367     0.09900
H801        H  0.48937867  0.42120561  0.54555030     0.09000
N802        N  0.39140943  0.40655268  0.89544956    -0.34900
N803        N  0.36552963  0.39843506  0.91409665    -0.27100
C804        C  0.34628359  0.39806813  0.88891257    -0.02300
C805        C  0.36069305  0.40683893  0.85254999     0.06300
C806        C  0.38934704  0.41218192  0.85785194     0.04400
H807        H  0.32477784  0.39434322  0.89711523     0.09500
H808        H  0.40799348  0.42080152  0.83617376     0.08400
N809        N  0.62931340  0.64261647  0.98155823    -0.26000
N810        N  0.61024594  0.61546299  0.96210479    -0.33900
C811        C  0.60762389  0.62214693  0.92567880     0.02300
C812        C  0.62571061  0.65522969  0.92195764     0.08300
C813        C  0.63938570  0.66755144  0.95783556    -0.04800
H814        H  0.59249213  0.60392347  0.90416669     0.09000
H815        H  0.65350562  0.69233739  0.96677882     0.10200
Cu816      Cu  0.58652627  0.57022366  0.98595068     0.44200
Cu817      Cu  0.60830468  0.62863602  0.53287842     0.42000
Cu818      Cu  0.58247202  0.55619500  0.58598125     0.43900
N819        N  0.57442521  0.52950696  0.01153828    -0.33400
N820        N  0.56882617  0.51943955  0.54849056    -0.27700
C821        C  0.57175069  0.49689640  0.55177623    -0.03800
C822        C  0.56669456  0.48490834  0.01920386     0.08400
C823        C  0.56725577  0.50438756  0.99281082     0.02200
H824        H  0.58184442  0.49386439  0.57650549     0.09900
H825        H  0.56500848  0.50179973  0.96179972     0.09000
N826        N  0.59427873  0.59708002  0.61207247    -0.34900
N827        N  0.60551152  0.62383702  0.59268262    -0.27100
C828        C  0.60887337  0.64460247  0.61705687    -0.02300
C829        C  0.59889984  0.63026946  0.65361164     0.06300
C830        C  0.58970675  0.60011724  0.64933400     0.04400
H831        H  0.61546005  0.66730115  0.60812430     0.09500
H832        H  0.57912137  0.58121225  0.67139605     0.08400
N833        N  0.61150468  0.29238353  0.95486330    -0.26000
N834        N  0.59489103  0.29684667  0.93247976    -0.33900
C835        C  0.59358210  0.28691643  0.89675186     0.02300
C836        C  0.61042894  0.27600003  0.89679064     0.08300
C837        C  0.62164601  0.28007323  0.93394056    -0.04800
H838        H  0.58070659  0.28697581  0.87284435     0.09000
H839        H  0.63415009  0.27239567  0.94564785     0.10200
Cu840      Cu  0.57439545  0.31579841  0.95177607     0.44200
Cu841      Cu  0.61608374  0.29507853  0.51341512     0.42000
Cu842      Cu  0.57229438  0.31655972  0.55503459     0.43900
N843        N  0.56416144  0.34127288  0.98032704    -0.33400
N844        N  0.56564076  0.34203865  0.51696923    -0.27700
C845        C  0.56023417  0.36183378  0.52636739    -0.03800
C846        C  0.55955626  0.37732243  0.99459403     0.08400
C847        C  0.56133846  0.36211514  0.96479273     0.02200
H848        H  0.55873684  0.36725721  0.55565484     0.09900
H849        H  0.56307334  0.36764041  0.93422355     0.09000
N850        N  0.58388494  0.29206347  0.58596992    -0.34900
N851        N  0.60180222  0.28624424  0.57083221    -0.27100
C852        C  0.60433542  0.26932868  0.59656094    -0.02300
C853        C  0.58690084  0.26380848  0.62959934     0.06300
C854        C  0.57417201  0.27849986  0.62185116     0.04400
H855        H  0.61615392  0.25988773  0.59056437     0.09500
H856        H  0.55829750  0.27855060  0.64052513     0.08400
N857        N  0.78259650  0.50132809  0.53870434    -0.26000
N858        N  0.75821715  0.49172334  0.56199997    -0.33900
C859        C  0.76561887  0.48950933  0.59835570     0.02300
C860        C  0.79624916  0.49849911  0.59773735     0.08300
C861        C  0.80635570  0.50612204  0.55959353    -0.04800
H862        H  0.74921884  0.48043387  0.62298799     0.09000
H863        H  0.82791085  0.51162504  0.54739192     0.10200
Cu864      Cu  0.71429645  0.47791744  0.54242097     0.44200
Cu865      Cu  0.78078297  0.50077808  0.97924278     0.42000
Cu866      Cu  0.69784453  0.45167094  0.94557821     0.43900
N867        N  0.67186804  0.46103038  0.51388438    -0.33400
N868        N  0.66600194  0.44944228  0.98198109    -0.27700
C869        C  0.63607843  0.43843193  0.97296292    -0.03800
C870        C  0.62245779  0.44310453  0.50001298     0.08400
C871        C  0.64592569  0.45625080  0.52845013     0.02200
H872        H  0.62450674  0.42862990  0.94530848     0.09900
H873        H  0.64411880  0.46155898  0.55766299     0.09000
N874        N  0.73590551  0.46203124  0.91271541    -0.34900
N875        N  0.76670048  0.48167917  0.92441459    -0.27100
C876        C  0.78539868  0.48281177  0.89780788    -0.02300
C877        C  0.76539015  0.46269777  0.86791843     0.06300
C878        C  0.73416692  0.44991650  0.87838977     0.04400
H879        H  0.81123621  0.49571381  0.90126093     0.09500
H880        H  0.71168901  0.43239318  0.86272536     0.08400
C881        C  0.56007496  0.45307343  0.50729509     0.03500
C882        C  0.53186719  0.42351347  0.49144211     0.03500
C883        C  0.53249850  0.39871180  0.48453820    -0.17000
C884        C  0.56119463  0.40369522  0.49100096     0.03500
C885        C  0.59031923  0.43467464  0.50168280     0.03500
C886        C  0.58914691  0.45854380  0.51134600    -0.17000
H887        H  0.61133229  0.48198939  0.52076448     0.05500
H888        H  0.51020015  0.37502253  0.47593019     0.05500
C889        C  0.60233626  0.65722443  0.86249809    -0.15200
C890        C  0.62592610  0.67295883  0.88924002    -0.30400
H891        H  0.58304248  0.63094580  0.86414438     0.13800
H892        H  0.64374065  0.69936850  0.88920912     0.14400
C893        C  0.59343420  0.64188621  0.68803357    -0.15200
C894        C  0.60991207  0.67360150  0.69345943    -0.30400
H895        H  0.57537738  0.62387192  0.70945130     0.13800
H896        H  0.62981871  0.69188615  0.67380870     0.14400
C897        C  0.79509847  0.47060511  0.65501847    -0.15200
C898        C  0.81253517  0.49505402  0.62876162    -0.30400
H899        H  0.76840898  0.45339905  0.65413537     0.13800
H900        H  0.83909067  0.51045460  0.62726048     0.14400
C901        C  0.80576967  0.47185688  0.82232967    -0.15200
C902        C  0.77438848  0.45369468  0.83422787    -0.30400
H903        H  0.82493256  0.49455549  0.83644120     0.13800
H904        H  0.75486506  0.43198075  0.81878512     0.14400
C905        C  0.58870657  0.24141489  0.84012012    -0.15200
C906        C  0.61259253  0.25930888  0.86611364    -0.30400
H907        H  0.56757967  0.23967622  0.84092096     0.13800
H908        H  0.63229282  0.25886148  0.86751101     0.14400
C909        C  0.60003229  0.23767114  0.67324907    -0.15200
C910        C  0.58015251  0.24341277  0.66387485    -0.30400
H911        H  0.62258749  0.24972762  0.65679381     0.13800
H912        H  0.55893735  0.23350095  0.68201484     0.14400
C913        C  0.90558255  0.44775330  0.82532273    -0.15200
C914        C  0.87658957  0.42552381  0.80833680    -0.30400
H915        H  0.91930401  0.47348685  0.82010301     0.13800
H916        H  0.86175052  0.39992968  0.81614505     0.14400
C917        C  0.90149484  0.45277564  0.62715727    -0.15200
C918        C  0.87347252  0.42931644  0.64686506    -0.30400
H919        H  0.91336046  0.47809529  0.63027547     0.13800
H920        H  0.86039751  0.40393226  0.64145847     0.14400
C921        C  0.27708781  0.56974434  0.68304148    -0.15200
C922        C  0.26829548  0.58215546  0.65872931    -0.30400
H923        H  0.26576424  0.54448827  0.68095446     0.13800
H924        H  0.28162154  0.60803309  0.65846700     0.14400
C925        C  0.29896870  0.59123516  0.85114146    -0.15200
C926        C  0.28665841  0.56232348  0.86648393    -0.30400
H927        H  0.29338206  0.60485901  0.86439191     0.13800
H928        H  0.29085150  0.54803168  0.85182876     0.14400
C929        C  0.32624100  0.41519933  0.63597789    -0.15200
C930        C  0.35796007  0.43128531  0.62864579    -0.30400
H931        H  0.30757412  0.39597692  0.61697457     0.13800
H932        H  0.37668049  0.44857728  0.64908965     0.14400
C933        C  0.31958608  0.40083242  0.81067599    -0.15200
C934        C  0.35104762  0.41502992  0.81762069    -0.30400
H935        H  0.30010198  0.38070559  0.82921716     0.13800
H936        H  0.37033258  0.43350077  0.79751151     0.14400
C937        C  0.21785463  0.43102235  0.81131135    -0.15200
C938        C  0.24972717  0.44553374  0.81191704    -0.30400
H939        H  0.20310805  0.41844542  0.78589265     0.13800
H940        H  0.26493115  0.46025689  0.83620546     0.14400
C941        C  0.24340684  0.44458251  0.61280684    -0.15200
C942        C  0.26194685  0.46367935  0.64243705    -0.30400
H943        H  0.23558670  0.42055567  0.61181040     0.13800
H944        H  0.27246141  0.48875287  0.64226573     0.14400
C945        C  0.57944239  0.11888556  0.69506306    -0.15200
C946        C  0.55382923  0.09844784  0.67175591    -0.30400
H947        H  0.60090211  0.12121377  0.69315527     0.13800
H948        H  0.53357462  0.09808267  0.67131895     0.14400
C949        C  0.57149242  0.12716874  0.86260824    -0.15200
C950        C  0.59627229  0.12986724  0.87690753    -0.30400
H951        H  0.54732084  0.11050576  0.87623599     0.13800
H952        H  0.61990455  0.14527679  0.86193211     0.14400
C953        C  0.44815014  0.71802125  0.83312547    -0.15200
C954        C  0.43432654  0.68732892  0.82609634    -0.30400
H955        H  0.44440337  0.73112746  0.81374580     0.13800
H956        H  0.43987621  0.67521424  0.84445635     0.14400
C957        C  0.43993647  0.69811900  0.64797437    -0.15200
C958        C  0.41562913  0.66611947  0.65469157    -0.30400
H959        H  0.44607473  0.71509961  0.67002536     0.13800
H960        H  0.41141822  0.64890055  0.63443004     0.14400
C961        C  0.57518652  0.75432513  0.71094301    -0.15200
C962        C  0.60023336  0.78242301  0.69308077    -0.30400
H963        H  0.55002378  0.74265468  0.70381697     0.13800
H964        H  0.62532186  0.79272933  0.69753168     0.14400
C965        C  0.59017938  0.75878546  0.90147650    -0.15200
C966        C  0.56792266  0.73558417  0.87680682    -0.30400
H967        H  0.61577317  0.77014866  0.89870340     0.13800
H968        H  0.54209703  0.72300783  0.88095927     0.14400
C969        C  0.78783538  0.30011970  0.65381960    -0.15200
C970        C  0.81610893  0.31184272  0.63707438    -0.30400
H971        H  0.77482898  0.30765713  0.64328157     0.13800
H972        H  0.82977767  0.30535986  0.64878220     0.14400
C973        C  0.80055175  0.28899890  0.82247389    -0.15200
C974        C  0.79076619  0.29996604  0.84682842    -0.30400
H975        H  0.82432446  0.29589081  0.82620494     0.13800
H976        H  0.76644856  0.29198834  0.84377743     0.14400
C977        C  0.70401109  0.13699489  0.82857277    -0.15200
C978        C  0.69067718  0.14789540  0.81113299    -0.30400
H979        H  0.72963637  0.14925121  0.82323070     0.13800
H980        H  0.66606803  0.13755000  0.81944263     0.14400
C981        C  0.68460679  0.16621728  0.64501172    -0.15200
C982        C  0.69776701  0.16211137  0.61597122    -0.30400
H983        H  0.65906630  0.15519155  0.64407177     0.13800
H984        H  0.72378625  0.17467804  0.61629381     0.14400
loop_ 
_geom_bond_atom_site_label_1 
_geom_bond_atom_site_label_2 
_geom_bond_distance 
_geom_bond_site_symmetry_2 
_ccdc_geom_bond_type 
O1           Cu9   2.028       .  S
O1           C11   1.282       .  A
O2           Cu9   2.013       .  S
O2           C12   1.277       .  A
O3           Cu9   2.007       .  S
O3           C13   1.277       .  A
O4           Cu9   2.013       .  S
O4           C14   1.277       .  A
O5          Cu10   2.004       .  S
O5           C14   1.279       .  A
O6          Cu10   2.014       .  S
O6           C13   1.279       .  A
O7          Cu10   1.995       .  S
O7           C12   1.278       .  A
O8          Cu10   2.005       .  S
O8           C11   1.276       .  A
Cu9         Cu10   2.374       .  S
C11         C481   1.482       .  S
C12         C489   1.472       .  S
C13         C486   1.474       .  S
C14         C477   1.476       .  S
N15          N16   1.325       .  A
N15          C19   1.345       .  A
N15        Cu515   2.066       .  S
N16          C17   1.355       .  A
N16         Cu22   2.147       .  S
C17          C18   1.385       .  A
C17          H20   1.073       .  S
C18         C473   1.484       .  S
C18          C19   1.377       .  A
C19          H21   1.082       .  S
Cu22         N25   2.142       .  S
Cu23         N33   2.064       .  S
Cu23        N507   2.067   1_554  S
Cu24         N26   2.085       .  S
Cu24         N32   2.091       .  S
N25         N518   1.329       .  A
N25          C29   1.352       .  A
N26         N517   1.328       .  A
N26          C27   1.343       .  A
C27         C520   1.382       .  A
C27          H30   1.083       .  S
C28          C29   1.391       .  A
C28         C519   1.380       .  A
C28         C604   1.489       .  S
C29          H31   1.082       .  S
N32          N33   1.325       .  A
N32          C36   1.346       .  A
N33          C34   1.341       .  A
C34          C35   1.375       .  A
C34          H37   1.082       .  S
C35         C470   1.464       .  S
C35          C36   1.381       .  A
C36          H38   1.082       .  S
N39          N40   1.322       .  A
N39          C43   1.351       .  A
N39         Cu47   2.074   1_554  S
N40          C41   1.349       .  A
N40         Cu46   2.119       .  S
C41          C42   1.381       .  A
C41          H44   1.076       .  S
C42         C465   1.484       .  S
C42          C43   1.385       .  A
C43          H45   1.082       .  S
Cu46         N49   2.125       .  S
Cu47        N549   2.076       .  S
Cu48         N50   2.094       .  S
Cu48         N56   2.092       .  S
N49         N542   1.329   1_554  A
N49          C53   1.348       .  A
N50         N541   1.328       .  A
N50          C51   1.342       .  A
C51         C544   1.381       .  A
C51          H54   1.082       .  S
C52          C53   1.384       .  A
C52         C543   1.379   1_554  A
C52         C111   1.479       .  S
C53          H55   1.082       .  S
N56          N57   1.327       .  A
N56          C60   1.347       .  A
N57          C58   1.342       .  A
N57        Cu539   2.075       .  S
C58          C59   1.380       .  A
C58          H61   1.082       .  S
C59         C461   1.469       .  S
C59          C60   1.381       .  A
C60          H62   1.082       .  S
N63          N64   1.324       .  A
N63          C67   1.349       .  A
N63        Cu563   2.084       .  S
N64          C65   1.346       .  A
N64         Cu70   2.101       .  S
C65          C66   1.379       .  A
C65          H68   1.078       .  S
C66         C458   1.480       .  S
C66          C67   1.386       .  A
C67          H69   1.082       .  S
Cu70         N73   2.113       .  S
Cu71         N81   2.084       .  S
Cu71        N555   2.085   1_554  S
Cu72         N74   2.095       .  S
Cu72         N80   2.095       .  S
N73         N566   1.328       .  A
N73          C77   1.346       .  A
N74         N565   1.328       .  A
N74          C75   1.341       .  A
C75         C568   1.380   1_545  A
C75          H78   1.082   1_545  S
C76          C77   1.384   1_565  A
C76         C567   1.383   1_565  A
C76         C607   1.481       .  S
C77          H79   1.082       .  S
N80          N81   1.325       .  A
N80          C84   1.348       .  A
N81          C82   1.345       .  A
C82          C83   1.380       .  A
C82          H85   1.082       .  S
C83         C454   1.479       .  S
C83          C84   1.386       .  A
C84          H86   1.082       .  S
N87          N88   1.328       .  A
N87          C91   1.341       .  A
N87         Cu95   2.071   1_554  S
N88          C89   1.349       .  A
N88         Cu94   2.131       .  S
C89          C90   1.382       .  A
C89          H92   1.075       .  S
C90         C490   1.470       .  S
C90          C91   1.374       .  A
C91          H93   1.082       .  S
Cu94         N97   2.123       .  S
Cu95        N597   2.062       .  S
Cu96         N98   2.082       .  S
Cu96        N104   2.088       .  S
N97         N590   1.326   1_554  A
N97         C101   1.352   1_545  A
N98         N589   1.326       .  A
N98          C99   1.343   1_545  A
C99         C592   1.382       .  A
C99         H102   1.082       .  S
C100        C101   1.392       .  A
C100        C591   1.384   1_554  A
C100        C114   1.492       .  S
C101        H103   1.082       .  S
N104        N105   1.324       .  A
N104        C108   1.347       .  A
N105        C106   1.341       .  A
N105       Cu587   2.067       .  S
C106        C107   1.377       .  A
C106        H109   1.082       .  S
C107        C485   1.470       .  S
C107        C108   1.386       .  A
C108        H110   1.082       .  S
C111        C112   1.427       .  A
C111        C116   1.395       .  A
C112        C113   1.408       .  A
C112        C520   1.491       .  S
C113        C114   1.408       .  A
C113        H118   1.084       .  S
C114        C115   1.426       .  A
C115        C116   1.395       .  A
C115        C568   1.476       .  S
C116        H117   1.085       .  S
O119       Cu127   2.017       .  S
O119        C129   1.278       .  A
O120       Cu127   2.022       .  S
O120        C130   1.278       .  A
O121       Cu127   2.019       .  S
O121        C131   1.279       .  A
O122       Cu127   2.021       .  S
O122        C132   1.280       .  A
O123       Cu128   1.999       .  S
O123        C132   1.275       .  A
O124       Cu128   1.989       .  S
O124        C131   1.275       .  A
O125       Cu128   2.018       .  S
O125        C130   1.280       .  A
O126       Cu128   2.038       .  S
O126        C129   1.281       .  A
Cu127      Cu128   2.373       .  S
C129        C441   1.486       .  S
C130        C450   1.483       .  S
C131        C446   1.467       .  S
C132        C437   1.473       .  S
O133       Cu141   1.987       .  S
O133        C143   1.275       .  A
O134       Cu141   2.002       .  S
O134        C144   1.278       .  A
O135       Cu141   2.027       .  S
O135        C145   1.279       .  A
O136       Cu141   2.024       .  S
O136        C146   1.280       .  A
O137       Cu142   2.031       .  S
O137        C146   1.279       .  A
O138       Cu142   2.011       .  S
O138        C145   1.279       .  A
O139       Cu142   2.011       .  S
O139        C144   1.277       .  A
O140       Cu142   2.019       .  S
O140        C143   1.279       .  A
Cu141      Cu142   2.373       .  S
C143        C462   1.471       .  S
C144        C429   1.474       .  S
C145        C433   1.483       .  S
C146        C466   1.485       .  S
N147        N148   1.325       .  A
N147        C151   1.340       .  A
N147       Cu647   2.055   1_554  S
N148        C149   1.357       .  A
N148       Cu154   2.143       .  S
C149        C150   1.390       .  A
C149        H152   1.078       .  S
C150        C449   1.478       .  S
C150        C151   1.372       .  A
C151        H153   1.082       .  S
Cu154       N157   2.148   1_554  S
Cu155       N165   2.057       .  S
Cu155       N639   2.060       .  S
Cu156       N158   2.085       .  S
Cu156       N164   2.086       .  S
N157        N650   1.330       .  A
N157        C161   1.351   1_556  A
N158        N649   1.330       .  A
N158        C159   1.342       .  A
C159        C652   1.378       .  A
C159        H162   1.082       .  S
C160        C161   1.392   1_556  A
C160        C651   1.378       .  A
C160        C736   1.488       .  S
C161        H163   1.082       .  S
N164        N165   1.324       .  A
N164        C168   1.348       .  A
N165        C166   1.339       .  A
C166        C167   1.376       .  A
C166        H169   1.082       .  S
C167        C445   1.466       .  S
C167        C168   1.383       .  A
C168        H170   1.082       .  S
N171        N172   1.325       .  A
N171        C175   1.350       .  A
N171       Cu179   2.079       .  S
N172        C173   1.348       .  A
N172       Cu178   2.123       .  S
C173        C174   1.377       .  A
C173        H176   1.075       .  S
C174        C434   1.480       .  S
C174        C175   1.384       .  A
C175        H177   1.082       .  S
Cu178       N181   2.122       .  S
Cu179       N681   2.079       .  S
Cu180       N182   2.091       .  S
Cu180       N188   2.093       .  S
N181        N674   1.328       .  A
N181        C185   1.348       .  A
N182        N673   1.329   1_554  A
N182        C183   1.343       .  A
C183        C676   1.381       .  A
C183        H186   1.082       .  S
C184        C185   1.388       .  A
C184        C675   1.380       .  A
C184        C243   1.485       .  S
C185        H187   1.082       .  S
N188        N189   1.326       .  A
N188        C192   1.348       .  A
N189        C190   1.341       .  A
N189       Cu671   2.070       .  S
C190        C191   1.375       .  A
C190        H193   1.082       .  S
C191        C430   1.469       .  S
C191        C192   1.385       .  A
C192        H194   1.082       .  S
N195        N196   1.323       .  A
N195        C199   1.342       .  A
N195       Cu203   2.045       .  S
N196        C197   1.353       .  A
N196       Cu202   2.125       .  S
C197        C198   1.393       .  A
C197        H200   1.082       .  S
C198        C482   1.481       .  S
C198        C199   1.377       .  A
C199        H201   1.082       .  S
Cu202       N205   2.198       .  S
Cu203       N705   2.040       .  S
Cu204       N206   2.155       .  S
Cu204       N212   2.092       .  S
N205        N698   1.287       .  A
N205        C209   1.353       .  A
N206        N697   1.287   1_554  A
N206        C207   1.350       .  A
C207        C700   1.395   1_554  A
C207        H210   1.082       .  S
C208        C209   1.396       .  A
C208        C699   1.395       .  A
C208        C246   1.497   1_655  S
C209        H211   1.082       .  S
N212        N213   1.319       .  A
N212        C216   1.344       .  A
N213        C214   1.347       .  A
N213       Cu695   2.051   1_554  S
C214        C215   1.386       .  A
C214        H217   1.082       .  S
C215        C478   1.474       .  S
C215        C216   1.379       .  A
C216        H218   1.082       .  S
N219        N220   1.344       .  A
N219        C223   1.339       .  A
N219       Cu227   2.167       .  S
N220        C221   1.348       .  A
N220       Cu226   2.214       .  S
C221        C222   1.385       .  A
C221        H224   1.082       .  S
C222        C421   1.466       .  S
C222        C223   1.372       .  A
C223        H225   1.082       .  S
Cu226       N229   2.187       .  S
Cu227       N729   2.169       .  S
Cu228       N230   2.167       .  S
Cu228       N236   2.192       .  S
N229        N722   1.348       .  A
N229        C233   1.345       .  A
N230        N721   1.348   1_554  A
N230        C231   1.343       .  A
C231        C724   1.374   1_554  A
C231        H234   1.083       .  S
C232        C233   1.380       .  A
C232        C723   1.374       .  A
C232        C247   1.481   1_655  S
C233        H235   1.082       .  S
N236        N237   1.340       .  A
N236        C240   1.346       .  A
N237        C238   1.342       .  A
N237       Cu719   2.153   1_554  S
C238        C239   1.375       .  A
C238        H241   1.082       .  S
C239        C425   1.466       .  S
C239        C240   1.382       .  A
C240        H242   1.082       .  S
C243        C244   1.428       .  A
C243        C248   1.400       .  A
C244        C245   1.405       .  A
C244        C652   1.488       .  S
C245        C246   1.404       .  A
C245        H250   1.084       .  S
C246        C247   1.431       .  A
C247        C248   1.400       .  A
C248        H249   1.084       .  S
O251       Cu259   2.002       .  S
O251        C261   1.276       .  A
O252       Cu259   2.023       .  S
O252        C262   1.280       .  A
O253       Cu259   2.030       .  S
O253        C263   1.280       .  A
O254       Cu259   2.024       .  S
O254        C264   1.279       .  A
O255       Cu260   2.015       .  S
O255        C264   1.278       .  A
O256       Cu260   2.006       .  S
O256        C263   1.278       .  A
O257       Cu260   2.013       .  S
O257        C262   1.277       .  A
O258       Cu260   2.016       .  S
O258        C261   1.279       .  A
Cu259      Cu260   2.374       .  S
C261        C413   1.473       .  S
C262        C453   1.479       .  S
C263        C457   1.482       .  S
C264        C417   1.478       .  S
O265       Cu273   2.019       .  S
O265        C275   1.279       .  A
O266       Cu273   2.025       .  S
O266        C276   1.280       .  A
O267       Cu273   2.006       .  S
O267        C277   1.276       .  A
O268       Cu273   2.004       .  S
O268        C278   1.276       .  A
O269       Cu274   2.010       .  S
O269        C278   1.279       .  A
O270       Cu274   2.022       .  S
O270        C277   1.279       .  A
O271       Cu274   2.005       .  S
O271        C276   1.276       .  A
O272       Cu274   1.991       .  S
O272        C275   1.276       .  A
Cu273      Cu274   2.375       .  S
C275        C426   1.472       .  S
C276        C409   1.476       .  S
C277        C405   1.475       .  S
C278        C422   1.474       .  S
O279       Cu287   1.980       .  S
O279        C289   1.272       .  A
O280       Cu287   1.985       .  S
O280        C290   1.275       .  A
O281       Cu287   2.030       .  S
O281        C291   1.281       .  A
O282       Cu287   2.034       .  S
O282        C292   1.281       .  A
O283       Cu288   2.017       .  S
O283        C292   1.278       .  A
O284       Cu288   2.012       .  S
O284        C291   1.277       .  A
O285       Cu288   2.016       .  S
O285        C290   1.278       .  A
O286       Cu288   2.006       .  S
O286        C289   1.280       .  A
Cu287      Cu288   2.374       .  S
C289        C397   1.463       .  S
C290        C469   1.471       .  S
C291        C474   1.482       .  S
C292        C402   1.485       .  S
N293        N294   1.321       .  A
N293        C297   1.347       .  A
N293       Cu793   2.081   1_554  S
N294        C295   1.344       .  A
N294       Cu300   2.060       .  S
C295        C296   1.379       .  A
C295        H298   1.082       .  S
C296        C438   1.475       .  S
C296        C297   1.387       .  A
C297        H299   1.082       .  S
Cu300       N303   2.060   1_554  S
Cu301       N311   2.075       .  S
Cu301       N785   2.074       .  S
Cu302       N304   2.124       .  S
Cu302       N310   2.124       .  S
N303        N796   1.323       .  A
N303        C307   1.343   1_556  A
N304        N795   1.324       .  A
N304        C305   1.355       .  A
C305        C798   1.395       .  A
C305        H308   1.082       .  S
C306        C307   1.378   1_556  A
C306        C797   1.394       .  A
C306        C390   1.488       .  S
C307        H309   1.082       .  S
N310        N311   1.325       .  A
N310        C314   1.352       .  A
N311        C312   1.347       .  A
C312        C313   1.383       .  A
C312        H315   1.082       .  S
C313        C442   1.487       .  S
C313        C314   1.391       .  A
C314        H316   1.082       .  S
N317        N318   1.321       .  A
N317        C321   1.344       .  A
N317       Cu817   2.075       .  S
N318        C319   1.338       .  A
N318       Cu324   2.035       .  S
C319        C320   1.372       .  A
C319        H322   1.082       .  S
C320        C398   1.463       .  S
C320        C321   1.388       .  A
C321        H323   1.082       .  S
Cu324       N327   2.036       .  S
Cu325       N335   2.071       .  S
Cu325       N809   2.070   1_554  S
Cu326       N328   2.112       .  S
Cu326       N334   2.113       .  S
N327        N820   1.320       .  A
N327        C331   1.341       .  A
N328        N819   1.322       .  A
N328        C329   1.351       .  A
C329        C822   1.392       .  A
C329        H332   1.082       .  S
C330        C331   1.377       .  A
C330        C821   1.392       .  A
C330        C881   1.482       .  S
C331        H333   1.082       .  S
N334        N335   1.324       .  A
N334        C338   1.351       .  A
N335        C336   1.346       .  A
C336        C337   1.383       .  A
C336        H339   1.082       .  S
C337        C401   1.486       .  S
C337        C338   1.390       .  A
C338        H340   1.082       .  S
N341        N342   1.323       .  A
N341        C345   1.344       .  A
N341       Cu841   2.066       .  S
N342        C343   1.347       .  A
N342       Cu348   2.084       .  S
C343        C344   1.386       .  A
C343        H346   1.082       .  S
C344        C414   1.474       .  S
C344        C345   1.379       .  A
C345        H347   1.082       .  S
Cu348       N351   2.084       .  S
Cu349       N359   2.063       .  S
Cu349       N833   2.064   1_554  S
Cu350       N352   2.097       .  S
Cu350       N358   2.096       .  S
N351        N844   1.324       .  A
N351        C355   1.350       .  A
N352        N843   1.324   1_554  A
N352        C353   1.345       .  A
C353        C846   1.385   1_554  A
C353        H356   1.082       .  S
C354        C355   1.384       .  A
C354        C845   1.386       .  A
C354        C884   1.483       .  S
C355        H357   1.082       .  S
N358        N359   1.321       .  A
N358        C362   1.351       .  A
N359        C360   1.343       .  A
C360        C361   1.384       .  A
C360        H363   1.082       .  S
C361        C418   1.485       .  S
C361        C362   1.390       .  A
C362        H364   1.082       .  S
N365        N366   1.323       .  A
N365        C369   1.346       .  A
N365       Cu865   2.074   1_554  S
N366        C367   1.346       .  A
N366       Cu372   2.083       .  S
C367        C368   1.387       .  A
C367        H370   1.082       .  S
C368        C406   1.479       .  S
C368        C369   1.382       .  A
C369        H371   1.082       .  S
Cu372       N375   2.082       .  S
Cu373       N383   2.067       .  S
Cu373       N857   2.066       .  S
Cu374       N376   2.088       .  S
Cu374       N382   2.086       .  S
N375        N868   1.323   1_554  A
N375        C379   1.349       .  A
N376        N867   1.324       .  A
N376        C377   1.344       .  A
C377        C870   1.384       .  A
C377        H380   1.082       .  S
C378        C379   1.385       .  A
C378        C869   1.383   1_554  A
C378        C393   1.482       .  S
C379        H381   1.082       .  S
N382        N383   1.321       .  A
N382        C386   1.348       .  A
N383        C384   1.344       .  A
C384        C385   1.385       .  A
C384        H387   1.082       .  S
C385        C410   1.482       .  S
C385        C386   1.386       .  A
C386        H388   1.082       .  S
C389        C390   1.420   1_554  A
C389        C394   1.404       .  A
C389        C822   1.480       .  S
C390        C391   1.410       .  A
C391        C392   1.409       .  A
C391        H396   1.084       .  S
C392        C393   1.411   1_556  A
C392        C846   1.483       .  S
C393        C394   1.402       .  A
C394        H395   1.084       .  S
C397        C398   1.334       .  D
C397        H399   1.087       .  S
C398        H400   1.087       .  S
C401        C402   1.350       .  D
C401        H403   1.086       .  S
C402        H404   1.086       .  S
C405        C406   1.343       .  D
C405        H407   1.087       .  S
C406        H408   1.087       .  S
C409        C410   1.344       .  D
C409        H411   1.086       .  S
C410        H412   1.086       .  S
C413        C414   1.341       .  D
C413        H415   1.087       .  S
C414        H416   1.087       .  S
C417        C418   1.347       .  D
C417        H419   1.086       .  S
C418        H420   1.086       .  S
C421        C422   1.340       .  D
C421        H423   1.086       .  S
C422        H424   1.088       .  S
C425        C426   1.343       .  D
C425        H427   1.086       .  S
C426        H428   1.087       .  S
C429        C430   1.342       .  D
C429        H431   1.087       .  S
C430        H432   1.087       .  S
C433        C434   1.345       .  D
C433        H435   1.086       .  S
C434        H436   1.087       .  S
C437        C438   1.340       .  D
C437        H439   1.087       .  S
C438        H440   1.086       .  S
C441        C442   1.350       .  D
C441        H443   1.086       .  S
C442        H444   1.086       .  S
C445        C446   1.344       .  D
C445        H447   1.086       .  S
C446        H448   1.087       .  S
C449        C450   1.342       .  D
C449        H451   1.087       .  S
C450        H452   1.087       .  S
C453        C454   1.345       .  D
C453        H455   1.087       .  S
C454        H456   1.086       .  S
C457        C458   1.346       .  D
C457        H459   1.086       .  S
C458        H460   1.087       .  S
C461        C462   1.344       .  D
C461        H463   1.086       .  S
C462        H464   1.087       .  S
C465        C466   1.345       .  D
C465        H467   1.087       .  S
C466        H468   1.086       .  S
C469        C470   1.344       .  D
C469        H471   1.087       .  S
C470        H472   1.086       .  S
C473        C474   1.345       .  D
C473        H475   1.087       .  S
C474        H476   1.086       .  S
C477        C478   1.342       .  D
C477        H479   1.086       .  S
C478        H480   1.087       .  S
C481        C482   1.342       .  D
C481        H483   1.086       .  S
C482        H484   1.087       .  S
C485        C486   1.342       .  D
C485        H487   1.086       .  S
C486        H488   1.088       .  S
C489        C490   1.343       .  D
C489        H491   1.086       .  S
C490        H492   1.087       .  S
O493       Cu501   2.022       .  S
O493        C503   1.280       .  A
O494       Cu501   2.010       .  S
O494        C504   1.277       .  A
O495       Cu501   2.004       .  S
O495        C505   1.276       .  A
O496       Cu501   2.005       .  S
O496        C506   1.276       .  A
O497       Cu502   1.995       .  S
O497        C506   1.278       .  A
O498       Cu502   2.013       .  S
O498        C505   1.279       .  A
O499       Cu502   2.014       .  S
O499        C504   1.280       .  A
O500       Cu502   2.014       .  S
O500        C503   1.277       .  A
Cu501      Cu502   2.375       .  S
C503        C973   1.482       .  S
C504        C981   1.476       .  S
C505        C978   1.473       .  S
C506        C969   1.469       .  S
N507        N508   1.326       .  A
N507        C511   1.347       .  A
N508        C509   1.353       .  A
N508       Cu514   2.151       .  S
C509        C510   1.386       .  A
C509        H512   1.075       .  S
C510        C965   1.486       .  S
C510        C511   1.378       .  A
C511        H513   1.082       .  S
Cu514       N517   2.142   1_556  S
Cu515       N525   2.064       .  S
Cu516       N518   2.091       .  S
Cu516       N524   2.095       .  S
N517        C521   1.352   1_554  A
N518        C519   1.342       .  A
C519        H522   1.083       .  S
C520        C521   1.393   1_554  A
C521        H523   1.082       .  S
N524        N525   1.324       .  A
N524        C528   1.347       .  A
N525        C526   1.342       .  A
C526        C527   1.376       .  A
C526        H529   1.082       .  S
C527        C962   1.469       .  S
C527        C528   1.385       .  A
C528        H530   1.082       .  S
N531        N532   1.324       .  A
N531        C535   1.348       .  A
N531       Cu539   2.072       .  S
N532        C533   1.350       .  A
N532       Cu538   2.121       .  S
C533        C534   1.378       .  A
C533        H536   1.077       .  S
C534        C957   1.477       .  S
C534        C535   1.382       .  A
C535        H537   1.082       .  S
Cu538       N541   2.125       .  S
Cu540       N542   2.090       .  S
Cu540       N548   2.090       .  S
N541        C545   1.349       .  A
N542        C543   1.341       .  A
C543        H546   1.082       .  S
C544        C545   1.387       .  A
C544        C603   1.484       .  S
C545        H547   1.082       .  S
N548        N549   1.327       .  A
N548        C552   1.348       .  A
N549        C550   1.339       .  A
C550        C551   1.378       .  A
C550        H553   1.082       .  S
C551        C953   1.469       .  S
C551        C552   1.382       .  A
C552        H554   1.082       .  S
N555        N556   1.325       .  A
N555        C559   1.348       .  A
N556        C557   1.345       .  A
N556       Cu562   2.096       .  S
C557        C558   1.378       .  A
C557        H560   1.078       .  S
C558        C950   1.476       .  S
C558        C559   1.384       .  A
C559        H561   1.082       .  S
Cu562       N565   2.107   1_556  S
Cu563       N573   2.084       .  S
Cu564       N566   2.102       .  S
Cu564       N572   2.101       .  S
N565        C569   1.345   1_554  A
N566        C567   1.343       .  A
C567        H570   1.082   1_545  S
C568        C569   1.383   1_564  A
C569        H571   1.082       .  S
N572        N573   1.327       .  A
N572        C576   1.348       .  A
N573        C574   1.344       .  A
C574        C575   1.379       .  A
C574        H577   1.082       .  S
C575        C946   1.477       .  S
C575        C576   1.386       .  A
C576        H578   1.082       .  S
N579        N580   1.328       .  A
N579        C583   1.342       .  A
N579       Cu587   2.075       .  S
N580        C581   1.351       .  A
N580       Cu586   2.138       .  S
C581        C582   1.384       .  A
C581        H584   1.075       .  S
C582        C982   1.477       .  S
C582        C583   1.375       .  A
C583        H585   1.082       .  S
Cu586       N589   2.128       .  S
Cu588       N590   2.093       .  S
Cu588       N596   2.095       .  S
N589        C593   1.352   1_545  A
N590        C591   1.344   1_545  A
C591        H594   1.082       .  S
C592        C593   1.392       .  A
C592        C606   1.491       .  S
C593        H595   1.081       .  S
N596        N597   1.324       .  A
N596        C600   1.347       .  A
N597        C598   1.342       .  A
C598        C599   1.377       .  A
C598        H601   1.082       .  S
C599        C977   1.473       .  S
C599        C600   1.387       .  A
C600        H602   1.082       .  S
C603        C604   1.427       .  A
C603        C608   1.400       .  A
C604        C605   1.405       .  A
C605        C606   1.405       .  A
C605        H610   1.084       .  S
C606        C607   1.427       .  A
C607        C608   1.401       .  A
C608        H609   1.084       .  S
O611       Cu619   2.023       .  S
O611        C621   1.278       .  A
O612       Cu619   2.029       .  S
O612        C622   1.279       .  A
O613       Cu619   2.021       .  S
O613        C623   1.279       .  A
O614       Cu619   2.023       .  S
O614        C624   1.280       .  A
O615       Cu620   1.988       .  S
O615        C624   1.274       .  A
O616       Cu620   1.985       .  S
O616        C623   1.274       .  A
O617       Cu620   2.021       .  S
O617        C622   1.280       .  A
O618       Cu620   2.039       .  S
O618        C621   1.282       .  A
Cu619      Cu620   2.372       .  S
C621        C933   1.488       .  S
C622        C942   1.485       .  S
C623        C938   1.466       .  S
C624        C929   1.469       .  S
O625       Cu633   1.988       .  S
O625        C635   1.275       .  A
O626       Cu633   2.001       .  S
O626        C636   1.277       .  A
O627       Cu633   2.027       .  S
O627        C637   1.279       .  A
O628       Cu633   2.020       .  S
O628        C638   1.280       .  A
O629       Cu634   2.013       .  S
O629        C638   1.277       .  A
O630       Cu634   2.000       .  S
O630        C637   1.277       .  A
O631       Cu634   2.006       .  S
O631        C636   1.277       .  A
O632       Cu634   2.014       .  S
O632        C635   1.278       .  A
Cu633      Cu634   2.375       .  S
C635        C954   1.468       .  S
C636        C921   1.471       .  S
C637        C925   1.480       .  S
C638        C958   1.476       .  S
N639        N640   1.325       .  A
N639        C643   1.340       .  A
N640        C641   1.358       .  A
N640       Cu646   2.141       .  S
C641        C642   1.392       .  A
C641        H644   1.079       .  S
C642        C941   1.482       .  S
C642        C643   1.374       .  A
C643        H645   1.082       .  S
Cu646       N649   2.145       .  S
Cu647       N657   2.053       .  S
Cu648       N650   2.084       .  S
Cu648       N656   2.084       .  S
N649        C653   1.351       .  A
N650        C651   1.342       .  A
C651        H654   1.082       .  S
C652        C653   1.392       .  A
C653        H655   1.082       .  S
N656        N657   1.324       .  A
N656        C660   1.348       .  A
N657        C658   1.339       .  A
C658        C659   1.376       .  A
C658        H661   1.082       .  S
C659        C937   1.465       .  S
C659        C660   1.382       .  A
C660        H662   1.082       .  S
N663        N664   1.325       .  A
N663        C667   1.347       .  A
N663       Cu671   2.071   1_556  S
N664        C665   1.347       .  A
N664       Cu670   2.118       .  S
C665        C666   1.378       .  A
C665        H668   1.077       .  S
C666        C926   1.476       .  S
C666        C667   1.382       .  A
C667        H669   1.082       .  S
Cu670       N673   2.118       .  S
Cu672       N674   2.083       .  S
Cu672       N680   2.086       .  S
N673        C677   1.348       .  A
N674        C675   1.343       .  A
C675        H678   1.082       .  S
C676        C677   1.386   1_554  A
C676        C735   1.484   1_554  S
C677        H679   1.082       .  S
N680        N681   1.326       .  A
N680        C684   1.345       .  A
N681        C682   1.343       .  A
C682        C683   1.377       .  A
C682        H685   1.082       .  S
C683        C922   1.469       .  S
C683        C684   1.383       .  A
C684        H686   1.082       .  S
N687        N688   1.322       .  A
N687        C691   1.344       .  A
N687       Cu695   2.055       .  S
N688        C689   1.350       .  A
N688       Cu694   2.111       .  S
C689        C690   1.389       .  A
C689        H692   1.081       .  S
C690        C974   1.481       .  S
C690        C691   1.380       .  A
C691        H693   1.082       .  S
Cu694       N697   2.180       .  S
Cu696       N698   2.135       .  S
Cu696       N704   2.077       .  S
N697        C701   1.353       .  A
N698        C699   1.350       .  A
C699        H702   1.082       .  S
C700        C701   1.396       .  A
C700        C738   1.497   1_655  S
C701        H703   1.082       .  S
N704        N705   1.318       .  A
N704        C708   1.342       .  A
N705        C706   1.344       .  A
C706        C707   1.385       .  A
C706        H709   1.082       .  S
C707        C970   1.466       .  S
C707        C708   1.374       .  A
C708        H710   1.082       .  S
N711        N712   1.341       .  A
N711        C715   1.339       .  A
N711       Cu719   2.154       .  S
N712        C713   1.349       .  A
N712       Cu718   2.213       .  S
C713        C714   1.387       .  A
C713        H716   1.082       .  S
C714        C913   1.467       .  S
C714        C715   1.372       .  A
C715        H717   1.082       .  S
Cu718       N721   2.187       .  S
Cu720       N722   2.168       .  S
Cu720       N728   2.193       .  S
N721        C725   1.344       .  A
N722        C723   1.342       .  A
C723        H726   1.083       .  S
C724        C725   1.379       .  A
C724        C739   1.481   1_655  S
C725        H727   1.082       .  S
N728        N729   1.339       .  A
N728        C732   1.350       .  A
N729        C730   1.346       .  A
C730        C731   1.380       .  A
C730        H733   1.082       .  S
C731        C917   1.478       .  S
C731        C732   1.384       .  A
C732        H734   1.082       .  S
C735        C736   1.428       .  A
C735        C740   1.399       .  A
C736        C737   1.406       .  A
C737        C738   1.405       .  A
C737        H742   1.084       .  S
C738        C739   1.431       .  A
C739        C740   1.399       .  A
C740        H741   1.084   1_556  S
O743       Cu751   1.998       .  S
O743        C753   1.275       .  A
O744       Cu751   2.016       .  S
O744        C754   1.279       .  A
O745       Cu751   2.028       .  S
O745        C755   1.280       .  A
O746       Cu751   2.023       .  S
O746        C756   1.279       .  A
O747       Cu752   2.011       .  S
O747        C756   1.277       .  A
O748       Cu752   1.999       .  S
O748        C755   1.277       .  A
O749       Cu752   2.013       .  S
O749        C754   1.277       .  A
O750       Cu752   2.016       .  S
O750        C753   1.279       .  A
Cu751      Cu752   2.375       .  S
C753        C905   1.471       .  S
C754        C945   1.478       .  S
C755        C949   1.479       .  S
C756        C909   1.477       .  S
O757       Cu765   2.034       .  S
O757        C767   1.281       .  A
O758       Cu765   2.031       .  S
O758        C768   1.281       .  A
O759       Cu765   2.000       .  S
O759        C769   1.275       .  A
O760       Cu765   1.997       .  S
O760        C770   1.275       .  A
O761       Cu766   2.014       .  S
O761        C770   1.280       .  A
O762       Cu766   2.020       .  S
O762        C769   1.280       .  A
O763       Cu766   2.005       .  S
O763        C768   1.276       .  A
O764       Cu766   2.002       .  S
O764        C767   1.277       .  A
Cu765      Cu766   2.374       .  S
C767        C918   1.483       .  S
C768        C901   1.478       .  S
C769        C897   1.473       .  S
C770        C914   1.472       .  S
O771       Cu779   2.002       .  S
O771        C781   1.277       .  A
O772       Cu779   2.004       .  S
O772        C782   1.278       .  A
O773       Cu779   2.028       .  S
O773        C783   1.280       .  A
O774       Cu779   2.031       .  S
O774        C784   1.280       .  A
O775       Cu780   2.018       .  S
O775        C784   1.278       .  A
O776       Cu780   2.014       .  S
O776        C783   1.278       .  A
O777       Cu780   2.009       .  S
O777        C782   1.277       .  A
O778       Cu780   1.996       .  S
O778        C781   1.276       .  A
Cu779      Cu780   2.375       .  S
C781        C889   1.464       .  S
C782        C961   1.473       .  S
C783        C966   1.482       .  S
C784        C894   1.482       .  S
N785        N786   1.321       .  A
N785        C789   1.344       .  A
N786        C787   1.345       .  A
N786       Cu792   2.062       .  S
C787        C788   1.380       .  A
C787        H790   1.082       .  S
C788        C930   1.473       .  S
C788        C789   1.386       .  A
C789        H791   1.082       .  S
Cu792       N795   2.063       .  S
Cu793       N803   2.082       .  S
Cu794       N796   2.123       .  S
Cu794       N802   2.124       .  S
N795        C799   1.343       .  A
N796        C797   1.355       .  A
C797        H800   1.082       .  S
C798        C799   1.379       .  A
C798        C882   1.489       .  S
C799        H801   1.082       .  S
N802        N803   1.326       .  A
N802        C806   1.352       .  A
N803        C804   1.347       .  A
C804        C805   1.384       .  A
C804        H807   1.082       .  S
C805        C934   1.490       .  S
C805        C806   1.391       .  A
C806        H808   1.082       .  S
N809        N810   1.320       .  A
N809        C813   1.346       .  A
N810        C811   1.339       .  A
N810       Cu816   2.048       .  S
C811        C812   1.382       .  A
C811        H814   1.081       .  S
C812        C890   1.472       .  S
C812        C813   1.384       .  A
C813        H815   1.082       .  S
Cu816       N819   2.046   1_556  S
Cu817       N827   2.075       .  S
Cu818       N820   2.106       .  S
Cu818       N826   2.109       .  S
N819        C823   1.342   1_554  A
N820        C821   1.350       .  A
C821        H824   1.082       .  S
C822        C823   1.376   1_554  A
C823        H825   1.082       .  S
N826        N827   1.325       .  A
N826        C830   1.350       .  A
N827        C828   1.346       .  A
C828        C829   1.383       .  A
C828        H831   1.082       .  S
C829        C893   1.485       .  S
C829        C830   1.389       .  A
C830        H832   1.082       .  S
N833        N834   1.323       .  A
N833        C837   1.343       .  A
N834        C835   1.346       .  A
N834       Cu840   2.083       .  S
C835        C836   1.386       .  A
C835        H838   1.082       .  S
C836        C906   1.473       .  S
C836        C837   1.378       .  A
C837        H839   1.082       .  S
Cu840       N843   2.083       .  S
Cu841       N851   2.065       .  S
Cu842       N844   2.099       .  S
Cu842       N850   2.098       .  S
N843        C847   1.351       .  A
N844        C845   1.346       .  A
C845        H848   1.082       .  S
C846        C847   1.385       .  A
C847        H849   1.082       .  S
N850        N851   1.322       .  A
N850        C854   1.350       .  A
N851        C852   1.344       .  A
C852        C853   1.383       .  A
C852        H855   1.082       .  S
C853        C910   1.483       .  S
C853        C854   1.388       .  A
C854        H856   1.082       .  S
N857        N858   1.323       .  A
N857        C861   1.343       .  A
N858        C859   1.347       .  A
N858       Cu864   2.081       .  S
C859        C860   1.387       .  A
C859        H862   1.082       .  S
C860        C898   1.474       .  S
C860        C861   1.378       .  A
C861        H863   1.082       .  S
Cu864       N867   2.081       .  S
Cu865       N875   2.074       .  S
Cu866       N868   2.081       .  S
Cu866       N874   2.081       .  S
N867        C871   1.349       .  A
N868        C869   1.343       .  A
C869        H872   1.082       .  S
C870        C871   1.384       .  A
C870        C885   1.481       .  S
C871        H873   1.082       .  S
N874        N875   1.322       .  A
N874        C878   1.348       .  A
N875        C876   1.345       .  A
C876        C877   1.386       .  A
C876        H879   1.082       .  S
C877        C902   1.482       .  S
C877        C878   1.385       .  A
C878        H880   1.082       .  S
C881        C882   1.421       .  A
C881        C886   1.405       .  A
C882        C883   1.410       .  A
C883        C884   1.409       .  A
C883        H888   1.084       .  S
C884        C885   1.411       .  A
C885        C886   1.402       .  A
C886        H887   1.084       .  S
C889        C890   1.342       .  D
C889        H891   1.085       .  S
C890        H892   1.087       .  S
C893        C894   1.348       .  D
C893        H895   1.087       .  S
C894        H896   1.086       .  S
C897        C898   1.340       .  D
C897        H899   1.087       .  S
C898        H900   1.087       .  S
C901        C902   1.344       .  D
C901        H903   1.086       .  S
C902        H904   1.086       .  S
C905        C906   1.341       .  D
C905        H907   1.087       .  S
C906        H908   1.087       .  S
C909        C910   1.346       .  D
C909        H911   1.086       .  S
C910        H912   1.086       .  S
C913        C914   1.338       .  D
C913        H915   1.086       .  S
C914        H916   1.088       .  S
C917        C918   1.348       .  D
C917        H919   1.086       .  S
C918        H920   1.087       .  S
C921        C922   1.342       .  D
C921        H923   1.087       .  S
C922        H924   1.087       .  S
C925        C926   1.345       .  D
C925        H927   1.086       .  S
C926        H928   1.087       .  S
C929        C930   1.338       .  D
C929        H931   1.087       .  S
C930        H932   1.086       .  S
C933        C934   1.350       .  D
C933        H935   1.086       .  S
C934        H936   1.086       .  S
C937        C938   1.343       .  D
C937        H939   1.086       .  S
C938        H940   1.087       .  S
C941        C942   1.343       .  D
C941        H943   1.087       .  S
C942        H944   1.086       .  S
C945        C946   1.344       .  D
C945        H947   1.087       .  S
C946        H948   1.086       .  S
C949        C950   1.345       .  D
C949        H951   1.086       .  S
C950        H952   1.087       .  S
C953        C954   1.343       .  D
C953        H955   1.086       .  S
C954        H956   1.087       .  S
C957        C958   1.341       .  D
C957        H959   1.087       .  S
C958        H960   1.087       .  S
C961        C962   1.342       .  D
C961        H963   1.087       .  S
C962        H964   1.086       .  S
C965        C966   1.346       .  D
C965        H967   1.086       .  S
C966        H968   1.086       .  S
C969        C970   1.339       .  D
C969        H971   1.086       .  S
C970        H972   1.087       .  S
C973        C974   1.345       .  D
C973        H975   1.086       .  S
C974        H976   1.087       .  S
C977        C978   1.341       .  D
C977        H979   1.086       .  S
C978        H980   1.087       .  S
C981        C982   1.343       .  D
C981        H983   1.086       .  S
C982        H984   1.087       .  S
