geometry optimzed in LAMMPS
_audit_creation_date              2020-11-30 
_audit_creation_method            'lammps2cif' 
_symmetry_space_group_name_H-M    'P1' 
_symmetry_Int_Tables_number       1 
_symmetry_cell_setting            triclinic 
loop_ 
_symmetry_equiv_pos_as_xyz 
  x,y,z 
_cell_length_a                    25.059960314312992 
_cell_length_b                    25.079051097519063 
_cell_length_c                    24.93952183094443 
_cell_angle_alpha                 89.90584153871495 
_cell_angle_beta                  90.34374808288752 
_cell_angle_gamma                 90.13076776647932 
loop_ 
_atom_site_label 
_atom_site_type_symbol 
_atom_site_fract_x 
_atom_site_fract_y 
_atom_site_fract_z 
_atom_site_charge 
C1          C  0.37177472  0.61885100  0.13547252    -0.02130
C2          C  0.59698247  0.39722827  0.12373544    -0.02130
C3          C  0.59396331  0.62136296  0.13570032    -0.02130
C4          C  0.37290149  0.39529210  0.12276410    -0.02130
O5          O  0.54919870  0.53994805  0.13075081    -0.71420
O6          O  0.41924202  0.47617304  0.12689245    -0.71640
O7          O  0.45279789  0.57294391  0.13255094    -0.71490
O8          O  0.51621330  0.44313771  0.12496647    -0.71500
O9          O  0.54886800  0.45311934  0.20181458    -0.71460
O10         O  0.42018856  0.55234988  0.20638533    -0.71480
O11         O  0.43443561  0.43870454  0.20042654    -0.71420
O12         O  0.53483135  0.56727069  0.20839855    -0.71610
V13         V  0.48437032  0.50786932  0.12953656     1.35240
V14         V  0.48462507  0.50276792  0.20758288     1.35170
C15         C  0.56159352  0.57347496  0.16443702     0.77820
C16         C  0.40668028  0.43889186  0.15640391     0.77880
C17         C  0.41750771  0.58334791  0.16475190     0.77750
C18         C  0.55146932  0.42861515  0.15619968     0.77710
C19         C  0.37194673  0.40735946  0.89860102    -0.02130
C20         C  0.59622894  0.40963450  0.89954581    -0.02130
C21         C  0.59433504  0.63384855  0.91126089    -0.02130
C22         C  0.36997060  0.63034400  0.90927152    -0.02130
O23         O  0.29728197  0.45152744  0.96199064    -0.71420
O24         O  0.29655841  0.57403342  0.07061869    -0.71640
O25         O  0.29594843  0.56635709  0.95420773    -0.71490
O26         O  0.29812730  0.45903424  0.07702744    -0.71500
O27         O  0.37366765  0.44683962  0.04449062    -0.71460
O28         O  0.37122091  0.58026090  0.98817120    -0.71480
O29         O  0.37194714  0.54104437  0.08407610    -0.71420
O30         O  0.37266389  0.48536053  0.94949103    -0.71610
V31         V  0.29371399  0.51271536  0.01600913     1.35240
V32         V  0.37159122  0.51354691  0.01648787     1.35170
C33         C  0.34118695  0.45060054  0.93477667     0.77820
C34         C  0.34017982  0.57522926  0.09902682     0.77880
C35         C  0.33955457  0.59413995  0.95300938     0.77750
C36         C  0.34198406  0.43160399  0.07857304     0.77710
O37         O  0.45100555  0.62930427  0.95616836    -0.71420
O38         O  0.51373804  0.62215961  0.08770411    -0.71640
O39         O  0.41727974  0.62302439  0.05366050    -0.71490
O40         O  0.54749593  0.62845234  0.99150779    -0.71500
O41         O  0.53112997  0.70471208  0.96209555    -0.71460
O42         O  0.43138427  0.69661278  0.09068147    -0.71480
O43         O  0.54555544  0.69871646  0.07738062    -0.71420
O44         O  0.41705573  0.70274793  0.97519369    -0.71610
V45         V  0.48223715  0.62645882  0.02222302     1.35240
V46         V  0.48126237  0.70405041  0.02652278     1.35170
C47         C  0.41518589  0.66087115  0.94469418     0.77820
C48         C  0.54856866  0.65344734  0.10252358     0.77880
C49         C  0.40487319  0.65218326  0.09114299     0.77750
C50         C  0.55972578  0.66191029  0.95776514     0.77710
O51         O  0.59555187  0.48085927  0.08102837    -0.71420
O52         O  0.59447849  0.55060550  0.95352276    -0.71640
O53         O  0.59544178  0.45264330  0.98253138    -0.71490
O54         O  0.59461744  0.57948325  0.05186228    -0.71500
O55         O  0.66969205  0.56334204  0.08448599    -0.71460
O56         O  0.67055134  0.46979607  0.95045033    -0.71480
O57         O  0.66960189  0.58340731  0.97032294    -0.71420
O58         O  0.67099158  0.44969894  0.06462179    -0.71610
V59         V  0.59577526  0.51589268  0.01727467     1.35240
V60         V  0.67357078  0.51663932  0.01749116     1.35170
C61         C  0.62729330  0.44508510  0.09191568     0.77820
C62         C  0.62561195  0.58699979  0.94290647     0.77880
C63         C  0.62691699  0.44214005  0.94649816     0.77750
C64         C  0.62589226  0.59063301  0.08827207     0.77710
O65         O  0.53646909  0.32405958  0.07034972    -0.71420
O66         O  0.43465665  0.33143715  0.94243927    -0.71640
O67         O  0.54837372  0.33117984  0.95543473    -0.71490
O68         O  0.42078483  0.32411618  0.05677261    -0.71500
O69         O  0.45408139  0.39770597  0.07709493    -0.71460
O70         O  0.51601613  0.40765379  0.94621778    -0.71480
O71         O  0.41979301  0.40446875  0.97977429    -0.71420
O72         O  0.55084596  0.40103747  0.04233612    -0.71610
V73         V  0.48516268  0.32438454  0.00619262     1.35240
V74         V  0.48508529  0.40196243  0.01138597     1.35170
C75         C  0.56404620  0.36766032  0.07589344     0.77820
C76         C  0.40682190  0.37491125  0.94264148     0.77880
C77         C  0.55095807  0.37687831  0.93118718     0.77750
C78         C  0.41822046  0.36582379  0.08735472     0.77710
O79         O  0.54976625  0.49024617  0.90235473    -0.71420
O80         O  0.41803328  0.55013512  0.90613746    -0.71640
O81         O  0.45316562  0.45390264  0.90002974    -0.71490
O82         O  0.51403379  0.58586097  0.90809636    -0.71500
O83         O  0.54705764  0.57588093  0.83203285    -0.71460
O84         O  0.41929845  0.47295015  0.82589030    -0.71480
O85         O  0.43236325  0.58738621  0.83252542    -0.71420
O86         O  0.53440200  0.46072809  0.82570707    -0.71610
V87         V  0.48373039  0.51996944  0.90348536     1.35240
V88         V  0.48333811  0.52442395  0.82559749     1.35170
C89         C  0.56251116  0.45630428  0.86939106     0.77820
C90         C  0.40474613  0.58692903  0.87638908     0.77880
C91         C  0.41717099  0.44267749  0.86812213     0.77750
C92         C  0.54923480  0.60120123  0.87743142     0.77710
C93         C  0.59134264  0.13309651  0.63112542    -0.02130
C94         C  0.59215751  0.13221198  0.40659369    -0.02130
C95         C  0.36621599  0.13086477  0.62778004    -0.02130
C96         C  0.36846587  0.12937645  0.40451159    -0.02130
O97         O  0.42745070  0.20628934  0.58063960    -0.71420
O98         O  0.53048291  0.20703396  0.45411543    -0.71640
O99         O  0.41559280  0.20564752  0.46538972    -0.71490
O100        O  0.54297533  0.20770027  0.56921843    -0.71500
O101        O  0.51034288  0.13243754  0.58439276    -0.71460
O102        O  0.44927059  0.13079063  0.45169971    -0.71480
O103        O  0.54576715  0.13242463  0.48775883    -0.71420
O104        O  0.41389547  0.13079271  0.54775003    -0.71610
V105        V  0.47908430  0.21002378  0.51738206     1.35240
V106        V  0.47986397  0.13232658  0.51792057     1.35170
C107        C  0.40013098  0.16229752  0.58271127     0.77820
C108        C  0.55850738  0.16365663  0.45202864     0.77880
C109        C  0.41351133  0.16160345  0.43821507     0.77750
C110        C  0.54581381  0.16403542  0.59706808     0.77710
C111        C  0.59407431  0.90717418  0.40785400    -0.02130
C112        C  0.37047809  0.90437141  0.40511762    -0.02130
C113        C  0.36783138  0.90749809  0.63084810    -0.02130
C114        C  0.59262989  0.90778467  0.63438022    -0.02130
O115        O  0.66549357  0.07126769  0.58409987    -0.71420
O116        O  0.66776956  0.96980383  0.45642577    -0.71640
O117        O  0.66640133  0.08433227  0.46956778    -0.71490
O118        O  0.66691382  0.95694238  0.57204967    -0.71500
O119        O  0.59112859  0.98823217  0.58591664    -0.71460
O120        O  0.59117733  0.05115135  0.45446688    -0.71480
O121        O  0.59264082  0.95379303  0.48888184    -0.71420
O122        O  0.58961431  0.08441346  0.55104349    -0.71610
V123        V  0.66985962  0.02056007  0.52063783     1.35240
V124        V  0.59195249  0.01931201  0.51995134     1.35170
C125        C  0.62150147  0.09836217  0.58592307     0.77820
C126        C  0.62446152  0.94155714  0.45360819     0.77880
C127        C  0.62263026  0.08666075  0.44169386     0.77750
C128        C  0.62324696  0.95370233  0.59971661     0.77710
O129        O  0.42763690  0.95758318  0.70626642    -0.71420
O130        O  0.52940351  0.08547074  0.70644278    -0.71640
O131        O  0.41443842  0.07129130  0.70460147    -0.71490
O132        O  0.54343625  0.97071792  0.70803843    -0.71500
O133        O  0.51150870  0.95425278  0.63232651    -0.71460
O134        O  0.44771771  0.08480301  0.62900944    -0.71480
O135        O  0.54546286  0.05144324  0.63207983    -0.71420
O136        O  0.41504570  0.98787776  0.62898843    -0.71610
V137        V  0.47876558  0.02116568  0.70960893     1.35240
V138        V  0.48000084  0.01978700  0.63141915     1.35170
C139        C  0.40121544  0.95372641  0.66145544     0.77820
C140        C  0.55777320  0.08757386  0.66313873     0.77880
C141        C  0.41184152  0.09780203  0.65999503     0.77750
C142        C  0.54672072  0.94215436  0.66471874     0.77710
O143        O  0.29291620  0.08135372  0.56483268    -0.71420
O144        O  0.29400228  0.95265741  0.46441100    -0.71640
O145        O  0.29299534  0.96727452  0.57981808    -0.71490
O146        O  0.29412446  0.06722130  0.45056733    -0.71500
O147        O  0.36919336  0.08231808  0.48498921    -0.71460
O148        O  0.36835508  0.95198075  0.54829320    -0.71480
O149        O  0.36934545  0.98559810  0.45093937    -0.71420
O150        O  0.36793314  0.04915934  0.58190198    -0.71610
V151        V  0.29018757  0.01699685  0.51486278     1.35240
V152        V  0.36799000  0.01719331  0.51647354     1.35170
C153        C  0.33614768  0.08451506  0.59356442     0.77820
C154        C  0.33820684  0.94985882  0.43773308     0.77880
C155        C  0.33674163  0.93990882  0.58378287     0.77750
C156        C  0.33778198  0.09498999  0.44918207     0.77710
O157        O  0.41836272  0.96748750  0.33089986    -0.71420
O158        O  0.54558719  0.06988719  0.33135691    -0.71640
O159        O  0.53237341  0.95494992  0.33221032    -0.71490
O160        O  0.43110127  0.08218456  0.33027808    -0.71500
O161        O  0.41585308  0.04895780  0.40554829    -0.71460
O162        O  0.54687168  0.98790783  0.40770930    -0.71480
O163        O  0.51208415  0.08461461  0.40650049    -0.71420
O164        O  0.45097607  0.95273325  0.40671313    -0.71610
V165        V  0.48190416  0.01858348  0.32782380     1.35240
V166        V  0.48147567  0.01866163  0.40592898     1.35170
C167        C  0.41604741  0.93927812  0.37455702     0.77820
C168        C  0.54736272  0.09787701  0.37502591     0.77880
C169        C  0.55980307  0.95252497  0.37643795     0.77750
C170        C  0.40300769  0.08425946  0.37373509     0.77710
O171        O  0.54642454  0.83168829  0.47002651    -0.71420
O172        O  0.41672944  0.83189418  0.57021129    -0.71640
O173        O  0.43182335  0.83074335  0.45511546    -0.71490
O174        O  0.53168382  0.83225195  0.58584412    -0.71500
O175        O  0.54691923  0.90696894  0.55202333    -0.71460
O176        O  0.41668167  0.90639350  0.48694843    -0.71480
O177        O  0.44953735  0.90721054  0.58493081    -0.71420
O178        O  0.51323447  0.90635555  0.45399701    -0.71610
V179        V  0.48171830  0.82829810  0.52036285     1.35240
V180        V  0.48164334  0.90599230  0.51956385     1.35170
C181        C  0.54882832  0.87512400  0.44158521     0.77820
C182        C  0.41369416  0.87593555  0.59738159     0.77880
C183        C  0.40448073  0.87446062  0.45150672     0.77750
C184        C  0.55923039  0.87606970  0.58844576     0.77710
C185        C  0.87911683  0.39778313  0.62294849    -0.02130
C186        C  0.87456290  0.40922828  0.39804981    -0.02130
C187        C  0.86331180  0.63042516  0.40900686    -0.02130
C188        C  0.86717214  0.62195797  0.63184800    -0.02130
O189        O  0.02185073  0.71240521  0.45760243    -0.71420
O190        O  0.92343070  0.70130854  0.58666443    -0.71640
O191        O  0.03830577  0.70835724  0.57336076    -0.71490
O192        O  0.90822755  0.70529463  0.47262199    -0.71500
O193        O  0.94532616  0.63293398  0.45434882    -0.71460
O194        O  0.00915676  0.63139180  0.58554951    -0.71480
O195        O  0.91334245  0.62621697  0.55130220    -0.71420
O196        O  0.04284432  0.63814677  0.48839457    -0.71610
V197        V  0.97293588  0.71026404  0.52281668     1.35240
V198        V  0.97771938  0.63285471  0.51976904     1.35170
C199        C  0.05265414  0.67118915  0.45340804     0.77820
C200        C  0.89882232  0.65579599  0.58747824     0.77880
C201        C  0.04329368  0.66376896  0.59962567     0.77750
C202        C  0.90771792  0.66257783  0.44342774     0.77710
O203        O  0.01865443  0.45234668  0.62274634    -0.71420
O204        O  0.94977793  0.57917471  0.62994744    -0.71640
O205        O  0.04733970  0.54982364  0.62714769    -0.71490
O206        O  0.92091695  0.48084442  0.62549641    -0.71500
O207        O  0.93826480  0.44537435  0.69954388    -0.71460
O208        O  0.03176731  0.57854120  0.70417917    -0.71480
O209        O  0.91815586  0.55898902  0.70458552    -0.71420
O210        O  0.05171476  0.46489262  0.69892020    -0.71610
V211        V  0.98404493  0.51552085  0.62710508     1.35240
V212        V  0.98508741  0.51181163  0.70520705     1.35170
C213        C  0.05495545  0.43978895  0.65353753     0.77820
C214        C  0.91405884  0.58872682  0.66209719     0.77880
C215        C  0.05857414  0.58421074  0.66021906     0.77750
C216        C  0.91074311  0.44341547  0.65549072     0.77710
O217        O  0.91435191  0.55276604  0.40445160    -0.71420
O218        O  0.04843990  0.49816700  0.39971340    -0.71640
O219        O  0.00899201  0.59216909  0.40546527    -0.71490
O220        O  0.95357323  0.45821145  0.39853531    -0.71500
O221        O  0.91799565  0.47549765  0.32459773    -0.71460
O222        O  0.04077369  0.58361140  0.32854545    -0.71480
O223        O  0.03382136  0.46819892  0.32300203    -0.71420
O224        O  0.92548043  0.59023139  0.33042351    -0.71610
V225        V  0.98126104  0.52532475  0.40129020     1.35240
V226        V  0.97957029  0.52952397  0.32325369     1.35170
C227        C  0.89875872  0.58877659  0.37483140     0.77820
C228        C  0.06237075  0.46492876  0.36654529     0.77880
C229        C  0.04278600  0.60872740  0.37399701     0.77750
C230        C  0.91774028  0.44567699  0.36712527     0.77710
O231        O  0.05395328  0.41126704  0.54026425    -0.71420
O232        O  0.92260266  0.40683059  0.47904669    -0.71640
O233        O  0.95868445  0.40350177  0.57572176    -0.71490
O234        O  0.01852127  0.41465117  0.44418954    -0.71500
O235        O  0.05507022  0.34021661  0.45450415    -0.71460
O236        O  0.92864352  0.32813596  0.55680565    -0.71480
O237        O  0.94043967  0.33473396  0.44177290    -0.71420
O238        O  0.04371587  0.33366068  0.56950360    -0.71610
V239        V  0.98834634  0.40831027  0.50971122     1.35240
V240        V  0.99219317  0.33080844  0.50551727     1.35170
C241        C  0.06884387  0.37877836  0.57392012     0.77820
C242        C  0.91058409  0.37694320  0.44184381     0.77880
C243        C  0.92489155  0.36996506  0.58709305     0.77750
C244        C  0.05507088  0.38562042  0.42952530     0.77710
O245        O  0.86765237  0.58077452  0.48801130    -0.71420
O246        O  0.87577892  0.44785952  0.54448694    -0.71640
O247        O  0.87357608  0.48640629  0.44996888    -0.71490
O248        O  0.86999969  0.54246309  0.58351722    -0.71500
O249        O  0.79359334  0.57193186  0.56912665    -0.71460
O250        O  0.80010125  0.44857404  0.46359336    -0.71480
O251        O  0.80017738  0.45653354  0.57843445    -0.71420
O252        O  0.79371434  0.56180126  0.45401058    -0.71610
V253        V  0.87111201  0.51437799  0.51659631     1.35240
V254        V  0.79349873  0.50954071  0.51645218     1.35170
C255        C  0.83522551  0.59265623  0.45297876     0.77820
C256        C  0.84534355  0.43133572  0.57917269     0.77880
C257        C  0.84340192  0.45052035  0.43555297     0.77750
C258        C  0.83723197  0.57602912  0.59706979     0.77710
C259        C  0.10143853  0.40929365  0.62046412    -0.02130
C260        C  0.08700414  0.64319466  0.40634272    -0.02130
C261        C  0.09052420  0.63208247  0.63138105    -0.02130
C262        C  0.09826998  0.41993914  0.39638632    -0.02130
O263        O  0.16761270  0.57841829  0.57963596    -0.71420
O264        O  0.17058989  0.48364170  0.44652941    -0.71640
O265        O  0.16474400  0.59688758  0.46527451    -0.71490
O266        O  0.17346384  0.46500917  0.56106451    -0.71500
O267        O  0.09720088  0.49240656  0.57845667    -0.71460
O268        O  0.09076086  0.56060651  0.45024410    -0.71480
O269        O  0.09723470  0.46270910  0.47981003    -0.71420
O270        O  0.09069708  0.58975876  0.54840374    -0.71610
V271        V  0.17242496  0.53116321  0.51314712     1.35240
V272        V  0.09474514  0.52638554  0.51416614     1.35170
C273        C  0.12223953  0.60272092  0.58394891     0.77820
C274        C  0.12855110  0.45347266  0.44329458     0.77880
C275        C  0.12025767  0.59807207  0.43852821     0.77750
C276        C  0.13058923  0.45822666  0.58922623     0.77710
C277        C  0.23168142  0.27018156  0.26827418    -0.02130
C278        C  0.73744661  0.26683838  0.26910255    -0.02130
C279        C  0.23377079  0.76504873  0.26288240    -0.02130
C280        C  0.22710761  0.26869205  0.76573618    -0.02130
C281        C  0.73658815  0.27111257  0.76615058    -0.02130
C282        C  0.72987215  0.76773592  0.26650403    -0.02130
C283        C  0.23050667  0.76838283  0.77001083    -0.02130
C284        C  0.09487174  0.12941810  0.13289762    -0.02130
C285        C  0.09446083  0.12980430  0.90863359    -0.02130
C286        C  0.87095821  0.13090019  0.13270187    -0.02130
C287        C  0.09117186  0.90638515  0.13408325    -0.02130
C288        C  0.86726300  0.91039873  0.13522007    -0.02130
O289        O  0.93166607  0.95629335  0.20873181    -0.71420
O290        O  0.03290830  0.08308261  0.20826285    -0.71640
O291        O  0.91833341  0.07052150  0.20877524    -0.71490
O292        O  0.04556669  0.96862211  0.20922300    -0.71500
O293        O  0.01113963  0.95352779  0.13423736    -0.71460
O294        O  0.95156434  0.08526592  0.13351069    -0.71480
O295        O  0.04753059  0.04910659  0.13340743    -0.71420
O296        O  0.91534402  0.98991845  0.13385834    -0.71610
V297        V  0.98213538  0.01970222  0.21227106     1.35240
V298        V  0.98146270  0.01946306  0.13429125     1.35170
C299        C  0.90260470  0.95487236  0.16558579     0.77820
C300        C  0.06075706  0.08462478  0.16460251     0.77880
C301        C  0.91604589  0.09791019  0.16467995     0.77750
C302        C  0.04685333  0.94057212  0.16563224     0.77710
C303        C  0.09020068  0.90485602  0.90902965    -0.02130
O304        O  0.16661612  0.96508202  0.95755263    -0.71420
O305        O  0.16882867  0.06680955  0.08575505    -0.71640
O306        O  0.16680838  0.95229408  0.07251426    -0.71490
O307        O  0.16884101  0.08046071  0.97048471    -0.71500
O308        O  0.09325621  0.04843866  0.95479522    -0.71460
O309        O  0.09201692  0.98636378  0.08649214    -0.71480
O310        O  0.09395761  0.08271787  0.05201909    -0.71420
O311        O  0.09106531  0.95197801  0.98986500    -0.71610
V312        V  0.17112281  0.01611556  0.02146759     1.35240
V313        V  0.09333060  0.01740049  0.02080736     1.35170
C314        C  0.12230344  0.93819557  0.95479708     0.77820
C315        C  0.12551060  0.09491220  0.08784779     0.77880
C316        C  0.12293736  0.95065614  0.09975697     0.77750
C317        C  0.12508223  0.08378202  0.94255452     0.77710
C318        C  0.87031224  0.13163992  0.90756406    -0.02130
O319        O  0.91916992  0.20564384  0.96951627    -0.71420
O320        O  0.04697906  0.20488593  0.07191702    -0.71640
O321        O  0.03354007  0.20453453  0.95660822    -0.71490
O322        O  0.93270733  0.20570168  0.08448206    -0.71500
O323        O  0.91721386  0.13086519  0.05138733    -0.71460
O324        O  0.04756475  0.12903690  0.98939714    -0.71480
O325        O  0.01409260  0.12952424  0.08595927    -0.71420
O326        O  0.95127575  0.13022954  0.95470368    -0.71610
V327        V  0.98319884  0.20849685  0.02055393     1.35240
V328        V  0.98247716  0.13070765  0.02046418     1.35170
C329        C  0.91629149  0.16202485  0.94174840     0.77820
C330        C  0.04956249  0.16087349  0.09913812     0.77880
C331        C  0.06068036  0.16058326  0.95417729     0.77750
C332        C  0.90461254  0.16228694  0.08689258     0.77710
C333        C  0.86557848  0.90744564  0.90843180    -0.02130
O334        O  0.02737782  0.83305709  0.08663054    -0.71420
O335        O  0.92655593  0.83330161  0.95840875    -0.71640
O336        O  0.04077715  0.83172132  0.97182569    -0.71490
O337        O  0.91316441  0.83417420  0.07376956    -0.71500
O338        O  0.94727030  0.90908368  0.08739107    -0.71460
O339        O  0.00941415  0.90734183  0.95597466    -0.71480
O340        O  0.91308882  0.90918312  0.98979623    -0.71420
O341        O  0.04364579  0.90759489  0.05294754    -0.71610
V342        V  0.97687962  0.82979748  0.02262636     1.35240
V343        V  0.97826189  0.90754338  0.02161553     1.35170
C344        C  0.05613743  0.87604738  0.08854751     0.77820
C345        C  0.89959665  0.87725698  0.95493471     0.77880
C346        C  0.04401143  0.87503492  0.94342154     0.77750
C347        C  0.91179342  0.87799709  0.10132284     0.77710
O348        O  0.79182391  0.95646637  0.97047827    -0.71420
O349        O  0.79577173  0.08500513  0.07077553    -0.71640
O350        O  0.79425415  0.07191735  0.95647191    -0.71490
O351        O  0.79302423  0.97159872  0.08593720    -0.71500
O352        O  0.86726236  0.95473537  0.05240083    -0.71460
O353        O  0.87043963  0.08474910  0.98840602    -0.71480
O354        O  0.87108633  0.05123068  0.08476434    -0.71420
O355        O  0.86687339  0.98864118  0.95394399    -0.71610
V356        V  0.79036754  0.02126679  0.02072556     1.35240
V357        V  0.86816446  0.01963862  0.01986413     1.35170
C358        C  0.83496146  0.95327281  0.94206302     0.77820
C359        C  0.84003736  0.08657088  0.09783999     0.77880
C360        C  0.83862274  0.09864827  0.95347903     0.77750
C361        C  0.83634312  0.94364582  0.08888479     0.77710
O362        O  0.04517794  0.06847493  0.83273741    -0.71420
O363        O  0.91460500  0.96841204  0.83254302    -0.71640
O364        O  0.93053758  0.08317666  0.83242601    -0.71490
O365        O  0.02950453  0.95333360  0.83310345    -0.71500
O366        O  0.04531719  0.98642424  0.90846227    -0.71460
O367        O  0.91545273  0.05027326  0.90801029    -0.71480
O368        O  0.94755698  0.95320001  0.90805168    -0.71420
O369        O  0.01288989  0.08353451  0.90814063    -0.71610
V370        V  0.97998801  0.01832207  0.82932288     1.35240
V371        V  0.98030316  0.01833677  0.90742086     1.35170
C372        C  0.04835567  0.09633591  0.87658028     0.77820
C373        C  0.91158890  0.94073794  0.87653776     0.77880
C374        C  0.90337684  0.08603307  0.87643890     0.77750
C375        C  0.05712261  0.95051740  0.87722344     0.77710
C376        C  0.73401744  0.76306513  0.76655296    -0.02130
C377        C  0.83403209  0.81486884  0.87709691    -0.11910
C378        C  0.82988509  0.87081026  0.87345380     0.05100
C379        C  0.79196947  0.89086203  0.83657120    -0.07190
C380        C  0.76175713  0.85630730  0.80431519    -0.07940
C381        C  0.76864670  0.80028517  0.80451280    -0.02490
C382        C  0.80446179  0.78009784  0.84430831     0.04330
N383        N  0.81184390  0.72420724  0.85308009     0.66830
H384        H  0.86012999  0.79625831  0.90557255     0.15730
H385        H  0.73181336  0.87520533  0.77969752     0.15440
N386        N  0.78061396  0.94631063  0.83241221     0.74540
O387        O  0.85660140  0.70404505  0.84218347    -0.38910
O388        O  0.78336522  0.70138480  0.88783760    -0.38850
O389        O  0.78601997  0.96825125  0.78716869    -0.39560
O390        O  0.74764830  0.96592637  0.86491502    -0.39630
C391        C  0.20722870  0.85340963  0.82369275    -0.11910
C392        C  0.19240271  0.80083947  0.80921051     0.05100
C393        C  0.14590422  0.78084742  0.83615419    -0.07190
C394        C  0.11301199  0.81520421  0.86592247    -0.07940
C395        C  0.12536679  0.86918631  0.87360762    -0.02490
C396        C  0.17317772  0.88799241  0.85087231     0.04330
N397        N  0.18614757  0.94325499  0.85081254     0.66830
H398        H  0.24525200  0.86971203  0.81171898     0.15730
H399        H  0.07795503  0.79820695  0.88432070     0.15440
N400        N  0.13430732  0.72545924  0.84150904     0.74540
O401        O  0.23359206  0.95807562  0.85959422    -0.38910
O402        O  0.15424689  0.97478962  0.82808061    -0.38850
O403        O  0.16042009  0.69868106  0.87556764    -0.39560
O404        O  0.08916178  0.70842077  0.82654041    -0.39630
C405        C  0.78999707  0.84662901  0.25351483    -0.11910
C406        C  0.76140961  0.80532802  0.22809346     0.05100
C407        C  0.76322681  0.80412302  0.17050277    -0.07190
C408        C  0.79914597  0.83765124  0.14325634    -0.07940
C409        C  0.82984546  0.87641648  0.16970437    -0.02490
C410        C  0.82241244  0.88226142  0.22588974     0.04330
N411        N  0.84512540  0.92457497  0.25675427     0.66830
H412        H  0.78796389  0.85091334  0.29669751     0.15730
H413        H  0.80140145  0.83497020  0.09995541     0.15440
N414        N  0.72738532  0.77332683  0.13776725     0.74540
O415        O  0.82416225  0.97015646  0.25423418    -0.38910
O416        O  0.87468357  0.91346471  0.29640031    -0.38850
O417        O  0.67839216  0.78464140  0.13754873    -0.39560
O418        O  0.74567658  0.74774680  0.09839525    -0.39630
C419        C  0.75618256  0.18365472  0.81741438    -0.11910
C420        C  0.77227907  0.23615620  0.80467118     0.05100
C421        C  0.82042462  0.25469951  0.82973625    -0.07190
C422        C  0.85129017  0.22013716  0.86130254    -0.07940
C423        C  0.83595770  0.16713474  0.87121243    -0.02490
C424        C  0.78783651  0.14894071  0.84767919     0.04330
N425        N  0.77095691  0.09463067  0.85194300     0.66830
H426        H  0.71909854  0.16754717  0.80243433     0.15730
H427        H  0.88801932  0.23581937  0.87783909     0.15440
N428        N  0.83873115  0.30868181  0.82522596     0.74540
O429        O  0.72222405  0.08346136  0.85826525    -0.38910
O430        O  0.80292970  0.05808442  0.83973287    -0.38850
O431        O  0.81950093  0.34334777  0.85607714    -0.39560
O432        O  0.88383091  0.31749685  0.80466622    -0.39630
C433        C  0.19598095  0.17747784  0.80317862    -0.11910
C434        C  0.19440158  0.23359073  0.80613139     0.05100
C435        C  0.16568297  0.25513061  0.85057270    -0.07190
C436        C  0.13466670  0.22136794  0.88337422    -0.07940
C437        C  0.13099488  0.16585627  0.87456699    -0.02490
C438        C  0.16401703  0.14456179  0.83471613     0.04330
N439        N  0.16922833  0.08872724  0.82754596     0.66830
H440        H  0.22339563  0.15706303  0.77742273     0.15730
H441        H  0.11387943  0.23975348  0.91618345     0.15440
N442        N  0.16967897  0.31028749  0.86558301     0.74540
O443        O  0.15592978  0.06931131  0.78273950    -0.38910
O444        O  0.20396168  0.06504734  0.85550384    -0.38850
O445        O  0.15269065  0.34650036  0.83482980    -0.39560
O446        O  0.18311116  0.32227718  0.91292558    -0.39630
C447        C  0.19302233  0.85797823  0.23980274    -0.11910
C448        C  0.19393435  0.80200996  0.23153274     0.05100
C449        C  0.15315093  0.78119385  0.19731181    -0.07190
C450        C  0.12284545  0.81536026  0.16530412    -0.07940
C451        C  0.12618113  0.87104695  0.16961700    -0.02490
C452        C  0.16041879  0.89219169  0.20946687     0.04330
N453        N  0.16201182  0.94812270  0.22103572     0.66830
H454        H  0.21684632  0.87653454  0.27068890     0.15730
H455        H  0.09535296  0.79648285  0.13814434     0.15440
N456        N  0.13966566  0.72572677  0.19521506     0.74540
O457        O  0.15070976  0.96383811  0.26765721    -0.38910
O458        O  0.18691563  0.97923271  0.19019968    -0.38850
O459        O  0.10508960  0.70873728  0.22766449    -0.39560
O460        O  0.14464691  0.70137829  0.15129207    -0.39630
C461        C  0.74895234  0.18554193  0.20736061    -0.11910
C462        C  0.76901192  0.23474351  0.22605911     0.05100
C463        C  0.81424898  0.25411331  0.19812824    -0.07190
C464        C  0.85138386  0.21672075  0.18045979    -0.07940
C465        C  0.83517170  0.16458358  0.16817622    -0.02490
C466        C  0.78263974  0.14868596  0.18259412     0.04330
N467        N  0.76543497  0.09405493  0.18041817     0.66830
H468        H  0.70952992  0.17228832  0.21868495     0.15730
H469        H  0.88928961  0.23136961  0.16636356     0.15440
N470        N  0.80888135  0.29914778  0.16288847     0.74540
O471        O  0.79598023  0.05780154  0.19742083    -0.38910
O472        O  0.71710452  0.08290675  0.17112040    -0.38850
O473        O  0.85001439  0.32514242  0.14968035    -0.39560
O474        O  0.76834855  0.30184452  0.13264713    -0.39630
C475        C  0.12704292  0.16451586  0.22318316    -0.11910
C476        C  0.13069250  0.16529439  0.16691988     0.05100
C477        C  0.16904223  0.19927838  0.14348087    -0.07190
C478        C  0.20057661  0.23223253  0.17592690    -0.07940
C479        C  0.19530812  0.23378175  0.23252463    -0.02490
C480        C  0.15871139  0.19707976  0.25575257     0.04330
N481        N  0.15397814  0.19075030  0.31264469     0.66830
H482        H  0.09996811  0.13818962  0.24352459     0.15730
H483        H  0.23084055  0.25494544  0.15545925     0.15440
N484        N  0.18023141  0.19779547  0.08722051     0.74540
O485        O  0.11416459  0.21052648  0.33604834    -0.38910
O486        O  0.17824375  0.15258339  0.33497336    -0.38850
O487        O  0.15095227  0.22314042  0.05480066    -0.39560
O488        O  0.22547243  0.18216597  0.07185780    -0.39630
C489        C  0.18875675  0.38403901  0.36654599    -0.11910
C490        C  0.13290289  0.38492302  0.36057274     0.05100
C491        C  0.10981475  0.35098084  0.32180675    -0.07190
C492        C  0.14161581  0.31517758  0.29341062    -0.07940
C493        C  0.19755747  0.31107311  0.30145519    -0.02490
C494        C  0.22108746  0.34968643  0.33648425     0.04330
N495        N  0.27779665  0.35538304  0.34219566     0.66830
H496        H  0.20855209  0.41057973  0.39425322     0.15730
H497        H  0.12118454  0.29184593  0.26334336     0.15440
N498        N  0.05388436  0.35236147  0.30983507     0.74540
O499        O  0.29889603  0.34712526  0.38752788    -0.38910
O500        O  0.30226520  0.38488499  0.30946286    -0.38850
O501        O  0.03879680  0.36924043  0.26452791    -0.39560
O502        O  0.02234122  0.32388553  0.33687487    -0.39630
C503        C  0.17638419  0.68350568  0.74924505    -0.11910
C504        C  0.19711742  0.73209340  0.72962077     0.05100
C505        C  0.18970686  0.73990395  0.67259816    -0.07190
C506        C  0.15173466  0.70956846  0.64443247    -0.07940
C507        C  0.12752617  0.66484728  0.66697588    -0.02490
C508        C  0.14444505  0.64916439  0.71884429     0.04330
N509        N  0.13646638  0.59623205  0.73912976     0.66830
H510        H  0.18966029  0.66840053  0.78747564     0.15730
H511        H  0.14474141  0.71815459  0.60235966     0.15440
N512        N  0.22384217  0.77201625  0.63983815     0.74540
O513        O  0.15580423  0.55713104  0.71407060    -0.38910
O514        O  0.12116257  0.58957663  0.78682552    -0.38850
O515        O  0.27119575  0.75694581  0.63231070    -0.39560
O516        O  0.20322709  0.80398114  0.60648097    -0.39630
C517        C  0.16209183  0.75755219  0.33377752    -0.11910
C518        C  0.19620353  0.72940057  0.29867731     0.05100
C519        C  0.19094981  0.67226577  0.29882997    -0.07190
C520        C  0.15498953  0.64758482  0.33395230    -0.07940
C521        C  0.12330208  0.67614851  0.36995481    -0.02490
C522        C  0.12756548  0.73230036  0.36961047     0.04330
N523        N  0.09833647  0.76531197  0.40539131     0.66830
H524        H  0.16386305  0.80071422  0.33497263     0.15730
H525        H  0.15151942  0.60449214  0.33274941     0.15440
N526        N  0.21854549  0.63728465  0.26313891     0.74540
O527        O  0.11769125  0.77522087  0.45115544    -0.38910
O528        O  0.06200796  0.79497972  0.38682158    -0.38850
O529        O  0.24381834  0.59826226  0.28267520    -0.39560
O530        O  0.20476679  0.63523791  0.21449884    -0.39630
C531        C  0.10692595  0.34059781  0.69313328    -0.11910
C532        C  0.13415733  0.37109904  0.65487546     0.05100
C533        C  0.18917670  0.36166351  0.64825248    -0.07190
C534        C  0.21652474  0.33051827  0.68583274    -0.07940
C535        C  0.19040785  0.30228684  0.72741150    -0.02490
C536        C  0.13316668  0.30485928  0.72748100     0.04330
N537        N  0.09970364  0.27059193  0.75885320     0.66830
H538        H  0.06380217  0.34295347  0.69507970     0.15730
H539        H  0.25929875  0.32682928  0.68128750     0.15440
N540        N  0.21680128  0.37685135  0.60055532     0.74540
O541        O  0.06369725  0.29099116  0.78743975    -0.38910
O542        O  0.09532694  0.22214785  0.74603636    -0.38850
O543        O  0.26336260  0.39598079  0.60378292    -0.39560
O544        O  0.19996103  0.36017156  0.55577901    -0.39630
C545        C  0.77786527  0.66172832  0.65759639    -0.11910
C546        C  0.83325581  0.65864653  0.66619360     0.05100
C547        C  0.85693038  0.69670073  0.70066135    -0.07190
C548        C  0.82489204  0.73187160  0.72946229    -0.07940
C549        C  0.76856654  0.72960386  0.72736925    -0.02490
C550        C  0.74563304  0.69746718  0.68586392     0.04330
N551        N  0.69033417  0.70084784  0.67042799     0.66830
H552        H  0.75845641  0.63706502  0.62805141     0.15730
H553        H  0.84553996  0.76111780  0.75346571     0.15440
N554        N  0.91366009  0.70145268  0.70641009     0.74540
O555        O  0.67840155  0.70758247  0.62163780    -0.38910
O556        O  0.65399549  0.68751332  0.70255697    -0.38850
O557        O  0.93613037  0.74422370  0.69209455    -0.39560
O558        O  0.93782046  0.67105002  0.73871994    -0.39630
C559        C  0.85376324  0.69862196  0.33701466    -0.11910
C560        C  0.82795046  0.66649396  0.37469412     0.05100
C561        C  0.77148319  0.66837863  0.37661222    -0.07190
C562        C  0.74334735  0.69709765  0.33774522    -0.07940
C563        C  0.76849235  0.73284758  0.30199116    -0.02490
C564        C  0.82596439  0.73197480  0.30149524     0.04330
N565        N  0.85828472  0.76128437  0.26450956     0.66830
H566        H  0.89695845  0.69763737  0.33480911     0.15730
H567        H  0.70012775  0.69607075  0.33934987     0.15440
N568        N  0.74146231  0.64712160  0.42033062     0.74540
O569        O  0.89428616  0.79168585  0.28273729    -0.38910
O570        O  0.86185752  0.74551984  0.21669847    -0.38850
O571        O  0.74795181  0.66664958  0.46655869    -0.39560
O572        O  0.70053720  0.61909646  0.41095259    -0.39630
C573        C  0.85788023  0.32620828  0.34454278    -0.11910
C574        C  0.83818129  0.37518688  0.36249129     0.05100
C575        C  0.78282418  0.38593527  0.35484417    -0.07190
C576        C  0.74952635  0.34614211  0.33314684    -0.07940
C577        C  0.77118597  0.29930090  0.31099097    -0.02490
C578        C  0.82264056  0.28514068  0.33039118     0.04330
N579        N  0.82829027  0.23889923  0.36376691     0.66830
H580        H  0.89886757  0.31583738  0.35325428     0.15730
H581        H  0.70805539  0.35574821  0.32581869     0.15440
N582        N  0.76133308  0.43884318  0.35988309     0.74540
O583        O  0.87373880  0.21806936  0.37025099    -0.38910
O584        O  0.79206485  0.22792090  0.39705360    -0.38850
O585        O  0.78703011  0.47833145  0.34187749    -0.39560
O586        O  0.71346360  0.44533091  0.37393365    -0.39630
C587        C  0.80378328  0.39048084  0.68644224    -0.11910
C588        C  0.84521639  0.36438282  0.66024561     0.05100
C589        C  0.85591567  0.31122436  0.67456632    -0.07190
C590        C  0.82068632  0.28430594  0.70850395    -0.07940
C591        C  0.77444244  0.30775886  0.73077452    -0.02490
C592        C  0.77083386  0.36477585  0.72340514     0.04330
N593        N  0.73853322  0.39958462  0.75503677     0.66830
H594        H  0.79894967  0.43305634  0.68069713     0.15730
H595        H  0.83383654  0.24589324  0.72235921     0.15440
N596        N  0.90520452  0.28570428  0.66133281     0.74540
O597        O  0.75283834  0.40983888  0.80248778    -0.38910
O598        O  0.70772588  0.43199671  0.73153070    -0.38850
O599        O  0.94854139  0.30482748  0.67892085    -0.39560
O600        O  0.90474798  0.23889187  0.64281244    -0.39630
C601        C  0.68319745  0.86544876  0.65797114    -0.11910
C602        C  0.62846232  0.87097550  0.66949637     0.05100
C603        C  0.60813153  0.83731254  0.71033452    -0.07190
C604        C  0.64140028  0.80161867  0.73805113    -0.07940
C605        C  0.69682833  0.79885712  0.72980557    -0.02490
C606        C  0.71708266  0.83104773  0.68707203     0.04330
N607        N  0.77179374  0.82850981  0.67098246     0.66830
H608        H  0.70098799  0.88732061  0.62552430     0.15730
H609        H  0.62196815  0.77612744  0.76663758     0.15440
N610        N  0.55378335  0.83856540  0.72642065     0.74540
O611        O  0.78289795  0.81105475  0.62494112    -0.38910
O612        O  0.80687409  0.85406346  0.69682455    -0.38850
O613        O  0.52857042  0.79495068  0.72636077    -0.39560
O614        O  0.54009916  0.87392699  0.75952594    -0.39630
C615        C  0.27877324  0.88592730  0.67602916    -0.11910
C616        C  0.33305799  0.87391776  0.66898342     0.05100
C617        C  0.35445221  0.83248998  0.70069729    -0.07190
C618        C  0.32179877  0.80305123  0.73515058    -0.07940
C619        C  0.26575239  0.80922823  0.73696632    -0.02490
C620        C  0.24468061  0.85483080  0.70844103     0.04330
N621        N  0.18953172  0.87147370  0.71143233     0.66830
H622        H  0.26157288  0.91968487  0.65568767     0.15730
H623        H  0.34219527  0.77442487  0.75998630     0.15440
N624        N  0.40966314  0.81889250  0.69861160     0.74540
O625        O  0.17836733  0.92055896  0.71104636    -0.38910
O626        O  0.15165812  0.83831267  0.71024459    -0.38850
O627        O  0.44429384  0.85415362  0.70758199    -0.39560
O628        O  0.42360430  0.77062011  0.69614815    -0.39630
C629        C  0.33858970  0.87081496  0.31361605    -0.11910
C630        C  0.33637938  0.86669888  0.36980771     0.05100
C631        C  0.30523341  0.82441313  0.39115110    -0.07190
C632        C  0.27575790  0.79089475  0.35652947    -0.07940
C633        C  0.27317277  0.79873034  0.30012339    -0.02490
C634        C  0.30945923  0.83724271  0.27926177     0.04330
N635        N  0.31766439  0.84386214  0.22301642     0.66830
H636        H  0.36354373  0.90012105  0.29465523     0.15730
H637        H  0.25506391  0.75803931  0.37516807     0.15440
N638        N  0.30498985  0.81231883  0.44747871     0.74540
O639        O  0.30701781  0.88842957  0.20192754    -0.38910
O640        O  0.35111049  0.81410944  0.20020856    -0.38850
O641        O  0.29004267  0.84674886  0.48091920    -0.39560
O642        O  0.31124495  0.76477287  0.46296916    -0.39630
C643        C  0.63015066  0.87844984  0.31636227    -0.11910
C644        C  0.63056933  0.87278019  0.37251790     0.05100
C645        C  0.66629337  0.83523955  0.39452303    -0.07190
C646        C  0.69964342  0.80530875  0.36092653    -0.07940
C647        C  0.69538439  0.80615517  0.30388698    -0.02490
C648        C  0.66082713  0.84626817  0.28247099     0.04330
N649        N  0.65607892  0.85617803  0.22613623     0.66830
H650        H  0.60578363  0.90810258  0.29700948     0.15730
H651        H  0.72949587  0.78221661  0.38153741     0.15440
N652        N  0.66990190  0.82674803  0.45121600     0.74540
O653        O  0.61237300  0.84526827  0.20322000    -0.38910
O654        O  0.68524873  0.89178997  0.20564979    -0.38850
O655        O  0.65556849  0.78235205  0.47026773    -0.39560
O656        O  0.69955485  0.85663574  0.47913307    -0.39630
C657        C  0.32623516  0.15500528  0.31538874    -0.11910
C658        C  0.33091186  0.16372296  0.37069798     0.05100
C659        C  0.29832822  0.20339606  0.39380142    -0.07190
C660        C  0.26496593  0.23471846  0.36122911    -0.07940
C661        C  0.26446507  0.23046977  0.30467505    -0.02490
C662        C  0.29365877  0.18663868  0.28267115     0.04330
N663        N  0.28970796  0.17174284  0.22737428     0.66830
H664        H  0.34739265  0.12280177  0.29638007     0.15730
H665        H  0.23862819  0.26161962  0.38170249     0.15440
N666        N  0.29781877  0.21246419  0.45050500     0.74540
O667        O  0.32559453  0.18640635  0.19526581    -0.38910
O668        O  0.26134540  0.13185455  0.21513846    -0.38850
O669        O  0.31178777  0.25747836  0.46833751    -0.39560
O670        O  0.27080449  0.18200971  0.48019282    -0.39630
C671        C  0.31852102  0.24052089  0.72493218    -0.11910
C672        C  0.26255063  0.23376403  0.72675582     0.05100
C673        C  0.24073092  0.19684301  0.68877184    -0.07190
C674        C  0.27429928  0.16309720  0.65929301    -0.07940
C675        C  0.33027525  0.16697004  0.66197679    -0.02490
C676        C  0.35168209  0.20755841  0.69465157     0.04330
N677        N  0.40767988  0.21531539  0.69969121     0.66830
H678        H  0.33841362  0.27136907  0.74758595     0.15730
H679        H  0.25513729  0.13450668  0.63341004     0.15440
N680        N  0.18454739  0.19226818  0.67915614     0.74540
O681        O  0.42697362  0.25981848  0.68603750    -0.38910
O682        O  0.43253164  0.18716707  0.73348274    -0.38850
O683        O  0.16342767  0.22279701  0.64485565    -0.39560
O684        O  0.16180890  0.14842409  0.68913238    -0.39630
C685        C  0.67900961  0.14717226  0.35715574    -0.11910
C686        C  0.62850825  0.16654041  0.37052067     0.05100
C687        C  0.61409908  0.21715790  0.35013726    -0.07190
C688        C  0.65230723  0.24860006  0.32343943    -0.07940
C689        C  0.70219530  0.22854089  0.30593406    -0.02490
C690        C  0.71557912  0.17493660  0.32450734     0.04330
N691        N  0.76295021  0.14458460  0.31028122     0.66830
H692        H  0.69003496  0.10785221  0.37085520     0.15730
H693        H  0.64065651  0.28869150  0.31269117     0.15440
N694        N  0.56037802  0.23668388  0.35336238     0.74540
O695        O  0.76117040  0.09422342  0.31021978    -0.38910
O696        O  0.80694681  0.16600382  0.29935434    -0.38530
O697        O  0.55188829  0.28570520  0.36089910    -0.39560
O698        O  0.52190586  0.20713134  0.33939899    -0.39630
C699        C  0.68274877  0.17409325  0.65224367    -0.11910
C700        C  0.62858053  0.16854565  0.66527418     0.05100
C701        C  0.61144403  0.19323280  0.71265417    -0.07190
C702        C  0.64775806  0.22053102  0.74557936    -0.07940
C703        C  0.70124772  0.23156894  0.73022949    -0.02490
C704        C  0.71927658  0.20160722  0.68500529     0.04330
N705        N  0.77404146  0.18952252  0.67586320     0.66830
H706        H  0.69869677  0.15507254  0.61713981     0.15730
H707        H  0.63236802  0.23476848  0.78326790     0.15440
N708        N  0.55628598  0.19559863  0.72573827     0.74540
O709        O  0.79315964  0.19687926  0.62969048    -0.38910
O710        O  0.79711269  0.15707497  0.70700440    -0.38850
O711        O  0.54148432  0.18627004  0.77314682    -0.39560
O712        O  0.52595636  0.22142970  0.69484857    -0.39630
C713        C  0.32669369  0.65458585  0.81969459    -0.11910
C714        C  0.33312827  0.66550749  0.87472264     0.05100
C715        C  0.30541331  0.70977691  0.89573572    -0.07190
C716        C  0.27484236  0.74240225  0.86152020    -0.07940
C717        C  0.26754819  0.73156631  0.80603092    -0.02490
C718        C  0.29596956  0.68669100  0.78547022     0.04330
N719        N  0.29549804  0.67283281  0.72970067     0.66830
H720        H  0.34545715  0.62038522  0.80174552     0.15730
H721        H  0.25627407  0.77639793  0.88003845     0.15440
N722        N  0.30748919  0.72285592  0.95173297     0.74540
O723        O  0.33118932  0.69196715  0.69983950    -0.38910
O724        O  0.27355835  0.62964389  0.71570539    -0.38850
O725        O  0.31545708  0.77053160  0.96591942    -0.39560
O726        O  0.29082933  0.68985524  0.98602277    -0.39630
C727        C  0.66188013  0.64190589  0.83867120    -0.11910
C728        C  0.63203404  0.66828098  0.87759294     0.05100
C729        C  0.64104785  0.72372511  0.88424734    -0.07190
C730        C  0.67283844  0.75142647  0.84740974    -0.07940
C731        C  0.70116519  0.72585907  0.80578073    -0.02490
C732        C  0.69883740  0.66838702  0.80599124     0.04330
N733        N  0.73459343  0.63471019  0.77686854     0.66830
H734        H  0.65878750  0.59887232  0.83579455     0.15730
H735        H  0.67617693  0.79423518  0.85207844     0.15440
N736        N  0.62262379  0.75247292  0.92999517     0.74540
O737        O  0.71570551  0.59692708  0.74914892    -0.38910
O738        O  0.78298333  0.63255975  0.79084451    -0.38850
O739        O  0.64153583  0.74130475  0.97568546    -0.39560
O740        O  0.59847859  0.79616484  0.92348849    -0.39630
C741        C  0.62138128  0.36753202  0.81096272    -0.11910
C742        C  0.63172101  0.37358462  0.86590595     0.05100
C743        C  0.67330696  0.34305943  0.88892916    -0.07190
C744        C  0.70441285  0.31020407  0.85662067    -0.07940
C745        C  0.69776507  0.30679893  0.80023704    -0.02490
C746        C  0.65286306  0.33529342  0.77764883     0.04330
N747        N  0.63692823  0.33185661  0.72181116     0.66830
H748        H  0.58818073  0.38817740  0.79288731     0.15730
H749        H  0.73437988  0.28755405  0.87766367     0.15440
N750        N  0.68648049  0.34579764  0.94496630     0.74540
O751        O  0.58806454  0.33414307  0.70931617    -0.38910
O752        O  0.67063909  0.32997260  0.68454841    -0.38850
O753        O  0.65411971  0.32862648  0.97948910    -0.39560
O754        O  0.73385246  0.35601379  0.95916679    -0.39630
C755        C  0.33112654  0.31731084  0.87253501    -0.11910
C756        C  0.33455604  0.37275967  0.86389313     0.05100
C757        C  0.30063456  0.39496642  0.82441344    -0.07190
C758        C  0.26569505  0.36214090  0.79481871    -0.07940
C759        C  0.26410215  0.30581653  0.80119156    -0.02490
C760        C  0.29767907  0.28417492  0.84213348     0.04330
N761        N  0.29775489  0.22842844  0.85490437     0.66830
H762        H  0.35393365  0.29809898  0.90372014     0.15730
H763        H  0.23910048  0.38248034  0.76763722     0.15440
N764        N  0.30029647  0.45111102  0.81389671     0.74540
O765        O  0.33037221  0.19795375  0.83189563    -0.38910
O766        O  0.27695310  0.21323385  0.89831049    -0.38850
O767        O  0.31319865  0.46773284  0.76796561    -0.39560
O768        O  0.27496869  0.48175208  0.84465518    -0.39630
C769        C  0.28261093  0.37221326  0.16277822    -0.11910
C770        C  0.33733930  0.36066137  0.15873964     0.05100
C771        C  0.35818672  0.32198962  0.19442161    -0.07190
C772        C  0.32498040  0.29694875  0.23180820    -0.07940
C773        C  0.26924925  0.30487119  0.23247521    -0.02490
C774        C  0.24901583  0.34578220  0.19837451     0.04330
N775        N  0.19467111  0.36310741  0.20016451     0.66830
H776        H  0.26409629  0.40282134  0.13936691     0.15730
H777        H  0.34424108  0.27025422  0.25962560     0.15440
N778        N  0.41246273  0.30506185  0.19248790     0.74540
O779        O  0.18443329  0.40790821  0.22066797    -0.38910
O780        O  0.16062964  0.34199523  0.16932142    -0.38850
O781        O  0.43929570  0.30545941  0.23548287    -0.39560
O782        O  0.42565545  0.27284894  0.15608626    -0.39630
C783        C  0.68231962  0.64871018  0.17696921    -0.11910
C784        C  0.62701101  0.65608209  0.17384777     0.05100
C785        C  0.60431658  0.69648628  0.20620200    -0.07190
C786        C  0.63754331  0.72916245  0.23767555    -0.07940
C787        C  0.69391346  0.72642051  0.23569815    -0.02490
C788        C  0.71560519  0.68243138  0.20665560     0.04330
N789        N  0.77126895  0.66974600  0.20691504     0.66830
H790        H  0.70116472  0.61617496  0.15639865     0.15730
H791        H  0.61763622  0.75712481  0.26332407     0.15440
N792        N  0.54803599  0.70732694  0.20611031     0.74540
O793        O  0.79717538  0.67588310  0.16412531    -0.38910
O794        O  0.78762204  0.63524096  0.24001584    -0.38850
O795        O  0.51499963  0.67085990  0.21639081    -0.39560
O796        O  0.53173395  0.75485757  0.20341547    -0.39630
C797        C  0.67967949  0.38638761  0.18098974    -0.11910
C798        C  0.63302819  0.36338139  0.16034123     0.05100
C799        C  0.62038640  0.31111987  0.17706460    -0.07190
C800        C  0.65682215  0.28199225  0.20818312    -0.07940
C801        C  0.70279687  0.30503250  0.23201160    -0.02490
C802        C  0.71477242  0.35960175  0.21610649     0.04330
N803        N  0.76106685  0.39030707  0.23281719     0.66830
H804        H  0.68923822  0.42698466  0.17000852     0.15730
H805        H  0.64655058  0.24108568  0.21714958     0.15440
N806        N  0.56876110  0.28850389  0.16766680     0.74540
O807        O  0.75732219  0.44031353  0.23741361    -0.38910
O808        O  0.80682804  0.37004912  0.23675477    -0.38850
O809        O  0.56360704  0.23921735  0.15868862    -0.39560
O810        O  0.52804129  0.31552305  0.17884783    -0.39630
C811        C  0.30900036  0.69955663  0.25224863    -0.11910
C812        C  0.27069613  0.73122208  0.22550237     0.05100
C813        C  0.27059491  0.72853648  0.16776378    -0.07190
C814        C  0.30144708  0.68938499  0.14198267    -0.07940
C815        C  0.33695888  0.65587882  0.16962967    -0.02490
C816        C  0.34117419  0.66257408  0.22596415     0.04330
N817        N  0.37633922  0.63184733  0.25873956     0.66830
H818        H  0.31210400  0.70124838  0.29556964     0.15730
H819        H  0.29993960  0.68707149  0.09862856     0.15440
N820        N  0.24362895  0.76599560  0.13328149     0.74540
O821        O  0.41996793  0.65230543  0.27368799    -0.38910
O822        O  0.35753817  0.59321493  0.28513600    -0.38850
O823        O  0.25427923  0.81499761  0.13673137    -0.39560
O824        O  0.22147791  0.74955958  0.09076308    -0.39630
loop_ 
_geom_bond_atom_site_label_1 
_geom_bond_atom_site_label_2 
_geom_bond_distance 
_geom_bond_site_symmetry_2 
_ccdc_geom_bond_type 
C1           C17   1.622       .  S
C1           C34   1.625       .  S
C1           C49   1.617       .  S
C1          C815   1.538       .  S
C2           C18   1.610       .  S
C2           C61   1.627       .  S
C2           C75   1.626       .  S
C2          C798   1.537       .  S
C3           C15   1.617       .  S
C3           C48   1.618       .  S
C3           C64   1.628       .  S
C3          C784   1.529       .  S
C4           C16   1.614       .  S
C4           C36   1.623       .  S
C4           C78   1.623       .  S
C4          C770   1.535       .  S
O5           V13   1.811       .  S
O5           C15   1.228       .  A
O6           V13   1.815       .  S
O6           C16   1.231       .  A
O7           V13   1.817       .  S
O7           C17   1.227       .  A
O8           V13   1.815       .  S
O8           C18   1.230       .  A
O9           V14   2.043       .  S
O9           C18   1.296       .  A
O10          V14   2.040       .  S
O10          C17   1.298       .  A
O11          V14   2.046       .  S
O11          C16   1.296       .  A
O12          V14   2.047       .  S
O12          C15   1.298       .  A
V13          V14   1.950       .  T
C19          C33   1.612       .  S
C19          C76   1.619       .  S
C19          C91   1.628       .  S
C19         C756   1.539       .  S
C20          C63   1.618       .  S
C20          C77   1.609       .  S
C20          C89   1.626       .  S
C20         C742   1.526       .  S
C21          C50   1.616       .  S
C21          C62   1.616       .  S
C21          C92   1.627       .  S
C21         C728   1.532       .  S
C22          C35   1.612       .  S
C22          C47   1.624       .  S
C22          C90   1.623       .  S
C22         C714   1.538       .  S
O23          V31   2.046   1_556  S
O23          C33   1.296       .  A
O24          V31   2.057       .  S
O24          C34   1.299       .  A
O25          V31   2.045   1_556  S
O25          C35   1.295       .  A
O26          V31   2.033       .  S
O26          C36   1.298       .  A
O27          V32   1.813       .  S
O27          C36   1.227       .  A
O28          V32   1.815   1_556  S
O28          C35   1.230       .  A
O29          V32   1.822       .  S
O29          C34   1.231       .  A
O30          V32   1.816   1_556  S
O30          C33   1.229       .  A
V31          V32   1.952       .  T
O37          V45   1.821   1_556  S
O37          C47   1.230       .  A
O38          V45   1.813       .  S
O38          C48   1.228       .  A
O39          V45   1.813       .  S
O39          C49   1.230       .  A
O40          V45   1.811   1_556  S
O40          C50   1.227       .  A
O41          V46   2.041   1_556  S
O41          C50   1.297       .  A
O42          V46   2.044       .  S
O42          C49   1.296       .  A
O43          V46   2.049       .  S
O43          C48   1.298       .  A
O44          V46   2.050   1_556  S
O44          C47   1.298       .  A
V45          V46   1.949       .  T
O51          V59   1.815       .  S
O51          C61   1.229       .  A
O52          V59   1.812   1_556  S
O52          C62   1.229       .  A
O53          V59   1.809   1_556  S
O53          C63   1.229       .  A
O54          V59   1.815       .  S
O54          C64   1.228       .  A
O55          V60   2.045       .  S
O55          C64   1.299       .  A
O56          V60   2.046   1_556  S
O56          C63   1.297       .  A
O57          V60   2.047   1_556  S
O57          C62   1.297       .  A
O58          V60   2.049       .  S
O58          C61   1.298       .  A
V59          V60   1.950       .  T
O65          V73   2.047       .  S
O65          C75   1.299       .  A
O66          V73   2.034   1_556  S
O66          C76   1.296       .  A
O67          V73   2.040   1_556  S
O67          C77   1.297       .  A
O68          V73   2.054       .  S
O68          C78   1.297       .  A
O69          V74   1.821       .  S
O69          C78   1.229       .  A
O70          V74   1.810   1_556  S
O70          C77   1.229       .  A
O71          V74   1.813   1_556  S
O71          C76   1.229       .  A
O72          V74   1.816       .  S
O72          C75   1.227       .  A
V73          V74   1.950       .  T
O79          V87   1.817       .  S
O79          C89   1.228       .  A
O80          V87   1.815       .  S
O80          C90   1.228       .  A
O81          V87   1.826       .  S
O81          C91   1.232       .  A
O82          V87   1.821       .  S
O82          C92   1.232       .  A
O83          V88   2.056       .  S
O83          C92   1.300       .  A
O84          V88   2.057       .  S
O84          C91   1.299       .  A
O85          V88   2.042       .  S
O85          C90   1.298       .  A
O86          V88   2.049       .  S
O86          C89   1.299       .  A
V87          V88   1.945       .  T
C93         C110   1.617       .  S
C93         C125   1.618       .  S
C93         C140   1.628       .  S
C93         C700   1.541       .  S
C94         C108   1.623       .  S
C94         C127   1.627       .  S
C94         C168   1.615       .  S
C94         C686   1.544       .  S
C95         C107   1.616       .  S
C95         C141   1.622       .  S
C95         C153   1.624       .  S
C95         C675   1.541       .  S
C96         C109   1.619       .  S
C96         C156   1.606       .  S
C96         C170   1.623       .  S
C96         C658   1.527       .  S
O97         V105   2.048       .  S
O97         C107   1.298       .  A
O98         V105   2.044       .  S
O98         C108   1.297       .  A
O99         V105   2.049       .  S
O99         C109   1.298       .  A
O100        V105   2.053       .  S
O100        C110   1.298       .  A
O101        V106   1.821       .  S
O101        C110   1.230       .  A
O102        V106   1.817       .  S
O102        C109   1.230       .  A
O103        V106   1.819       .  S
O103        C108   1.229       .  A
O104        V106   1.817       .  S
O104        C107   1.229       .  A
V105        V106   1.949       .  T
C111        C126   1.617       .  S
C111        C169   1.624       .  S
C111        C181   1.626       .  S
C111        C644   1.540       .  S
C112        C154   1.622       .  S
C112        C167   1.629       .  S
C112        C183   1.617       .  S
C112        C630   1.545       .  S
C113        C139   1.618       .  S
C113        C155   1.623       .  S
C113        C182   1.632       .  S
C113        C616   1.542       .  S
C114        C128   1.632       .  S
C114        C142   1.630       .  S
C114        C184   1.623       .  S
C114        C602   1.555       .  S
O115        V123   2.036       .  S
O115        C125   1.297       .  A
O116        V123   2.048   1_565  S
O116        C126   1.296       .  A
O117        V123   2.045       .  S
O117        C127   1.296       .  A
O118        V123   2.047   1_565  S
O118        C128   1.299       .  A
O119        V124   1.820   1_565  S
O119        C128   1.231       .  A
O120        V124   1.817       .  S
O120        C127   1.231       .  A
O121        V124   1.818   1_565  S
O121        C126   1.231       .  A
O122        V124   1.810       .  S
O122        C125   1.228       .  A
V123        V124   1.953       .  T
O129        V137   2.045   1_565  S
O129        C139   1.299       .  A
O130        V137   2.052       .  S
O130        C140   1.297       .  A
O131        V137   2.050       .  S
O131        C141   1.296       .  A
O132        V137   2.059   1_565  S
O132        C142   1.300       .  A
O133        V138   1.825   1_565  S
O133        C142   1.231       .  A
O134        V138   1.823       .  S
O134        C141   1.234       .  A
O135        V138   1.821       .  S
O135        C140   1.231       .  A
O136        V138   1.813   1_565  S
O136        C139   1.228       .  A
V137        V138   1.951       .  T
O143        V151   2.042       .  S
O143        C153   1.298       .  A
O144        V151   2.051   1_565  S
O144        C154   1.298       .  A
O145        V151   2.044   1_565  S
O145        C155   1.298       .  A
O146        V151   2.040       .  S
O146        C156   1.296       .  A
O147        V152   1.811       .  S
O147        C156   1.229       .  A
O148        V152   1.817   1_565  S
O148        C155   1.228       .  A
O149        V152   1.818   1_565  S
O149        C154   1.231       .  A
O150        V152   1.819       .  S
O150        C153   1.230       .  A
V151        V152   1.950       .  T
O157        V165   2.043   1_565  S
O157        C167   1.299       .  A
O158        V165   2.049       .  S
O158        C168   1.297       .  A
O159        V165   2.041   1_565  S
O159        C169   1.298       .  A
O160        V165   2.044       .  S
O160        C170   1.297       .  A
O161        V166   1.813       .  S
O161        C170   1.230       .  A
O162        V166   1.813   1_565  S
O162        C169   1.228       .  A
O163        V166   1.822       .  S
O163        C168   1.231       .  A
O164        V166   1.820   1_565  S
O164        C167   1.231       .  A
V165        V166   1.948       .  T
O171        V179   2.058       .  S
O171        C181   1.300       .  A
O172        V179   2.057       .  S
O172        C182   1.299       .  A
O173        V179   2.047       .  S
O173        C183   1.297       .  A
O174        V179   2.054       .  S
O174        C184   1.298       .  A
O175        V180   1.821       .  S
O175        C184   1.231       .  A
O176        V180   1.816       .  S
O176        C183   1.230       .  A
O177        V180   1.823       .  S
O177        C182   1.232       .  A
O178        V180   1.821       .  S
O178        C181   1.230       .  A
V179        V180   1.949       .  T
C185        C216   1.609       .  S
C185        C243   1.619       .  S
C185        C256   1.614       .  S
C185        C588   1.514       .  S
C186        C230   1.614       .  S
C186        C242   1.628       .  S
C186        C257   1.604       .  S
C186        C574   1.528       .  S
C187        C202   1.616       .  S
C187        C227   1.619       .  S
C187        C255   1.612       .  S
C187        C560   1.526       .  S
C188        C200   1.606       .  S
C188        C214   1.624       .  S
C188        C258   1.623       .  S
C188        C546   1.522       .  S
O189        V197   2.043   1_455  S
O189        C199   1.296       .  A
O190        V197   2.036       .  S
O190        C200   1.296       .  A
O191        V197   2.062   1_455  S
O191        C201   1.301       .  A
O192        V197   2.046       .  S
O192        C202   1.296       .  A
O193        V198   1.818       .  S
O193        C202   1.231       .  A
O194        V198   1.816   1_455  S
O194        C201   1.228       .  A
O195        V198   1.806       .  S
O195        C200   1.226       .  A
O196        V198   1.819   1_455  S
O196        C199   1.228       .  A
V197        V198   1.947       .  T
C199        C260   1.622       .  S
C201        C261   1.628       .  S
O203        V211   1.812   1_455  S
O203        C213   1.228       .  A
O204        V211   1.816       .  S
O204        C214   1.230       .  A
O205        V211   1.803   1_455  S
O205        C215   1.225       .  A
O206        V211   1.804       .  S
O206        C216   1.227       .  A
O207        V212   2.040       .  S
O207        C216   1.295       .  A
O208        V212   2.040   1_455  S
O208        C215   1.297       .  A
O209        V212   2.055       .  S
O209        C214   1.298       .  A
O210        V212   2.052   1_455  S
O210        C213   1.299       .  A
V211        V212   1.950       .  T
C213        C259   1.625       .  S
C215        C261   1.612       .  S
O217        V225   1.816       .  S
O217        C227   1.229       .  A
O218        V225   1.818   1_455  S
O218        C228   1.228       .  A
O219        V225   1.816   1_455  S
O219        C229   1.229       .  A
O220        V225   1.820       .  S
O220        C230   1.229       .  A
O221        V226   2.052       .  S
O221        C230   1.297       .  A
O222        V226   2.049   1_455  S
O222        C229   1.298       .  A
O223        V226   2.055   1_455  S
O223        C228   1.299       .  A
O224        V226   2.050       .  S
O224        C227   1.298       .  A
V225        V226   1.949       .  T
C228        C262   1.622       .  S
C229        C260   1.616       .  S
O231        V239   1.809   1_455  S
O231        C241   1.226       .  A
O232        V239   1.813       .  S
O232        C242   1.229       .  A
O233        V239   1.814       .  S
O233        C243   1.226       .  A
O234        V239   1.811   1_455  S
O234        C244   1.229       .  A
O235        V240   2.044   1_455  S
O235        C244   1.297       .  A
O236        V240   2.050       .  S
O236        C243   1.298       .  A
O237        V240   2.048       .  S
O237        C242   1.298       .  A
O238        V240   2.048   1_455  S
O238        C241   1.298       .  A
V239        V240   1.949       .  T
C241        C259   1.609       .  S
C244        C262   1.612       .  S
O245        V253   1.812       .  S
O245        C255   1.226       .  A
O246        V253   1.810       .  S
O246        C256   1.228       .  A
O247        V253   1.806       .  S
O247        C257   1.227       .  A
O248        V253   1.813       .  S
O248        C258   1.227       .  A
O249        V254   2.045       .  S
O249        C258   1.297       .  A
O250        V254   2.028       .  S
O250        C257   1.295       .  A
O251        V254   2.044       .  S
O251        C256   1.298       .  A
O252        V254   2.034       .  S
O252        C255   1.295       .  A
V253        V254   1.948       .  T
C259        C276   1.627       .  S
C259        C532   1.523       .  S
C260        C275   1.616       .  S
C260        C521   1.529       .  S
C261        C273   1.609       .  S
C261        C507   1.521       .  S
C262        C274   1.625       .  S
C262        C490   1.529       .  S
O263        V271   2.044       .  S
O263        C273   1.296       .  A
O264        V271   2.046       .  S
O264        C274   1.298       .  A
O265        V271   2.042       .  S
O265        C275   1.296       .  A
O266        V271   2.043       .  S
O266        C276   1.298       .  A
O267        V272   1.815       .  S
O267        C276   1.228       .  A
O268        V272   1.812       .  S
O268        C275   1.230       .  A
O269        V272   1.815       .  S
O269        C274   1.228       .  A
O270        V272   1.809       .  S
O270        C273   1.228       .  A
V271        V272   1.950       .  T
C277        C479   1.565       .  S
C277        C493   1.576       .  S
C277        C661   1.576       .  S
C277        C773   1.563       .  S
C278        C462   1.563       .  S
C278        C577   1.568       .  S
C278        C689   1.597       .  S
C278        C801   1.587       .  S
C279        C448   1.568       .  S
C279        C518   1.577       .  S
C279        C633   1.593       .  S
C279        C812   1.569       .  S
C280        C434   1.570       .  S
C280        C535   1.568       .  S
C280        C672   1.587       .  S
C280        C759   1.580       .  S
C281        C420   1.575       .  S
C281        C591   1.589       .  S
C281        C703   1.600       .  S
C281        C745   1.577       .  S
C282        C406   1.560       .  S
C282        C563   1.574       .  S
C282        C647   1.600       .  S
C282        C787   1.570       .  S
C283        C392   1.596       .  S
C283        C504   1.591       .  S
C283        C619   1.584       .  S
C283        C717   1.585       .  S
C284        C300   1.618       .  S
C284        C315   1.618       .  S
C284        C330   1.616       .  S
C284        C476   1.525       .  S
C285        C317   1.622       .  S
C285        C331   1.619       .  S
C285        C372   1.633       .  S
C285        C437   1.543       .  S
C286        C301   1.609       .  S
C286        C332   1.625       .  S
C286        C359   1.607       .  S
C286        C465   1.522       .  S
C287        C302   1.614       .  S
C287        C316   1.613       .  S
C287        C344   1.621       .  S
C287        C451   1.527       .  S
C288        C299   1.610       .  S
C288        C347   1.624       .  S
C288        C361   1.619       .  S
C288        C409   1.533       .  S
O289        V297   2.031   1_565  S
O289        C299   1.296       .  A
O290        V297   2.036   1_455  S
O290        C300   1.297       .  A
O291        V297   2.048       .  S
O291        C301   1.297       .  A
O292        V297   2.046   1_465  S
O292        C302   1.296       .  A
O293        V298   1.815   1_465  S
O293        C302   1.230       .  A
O294        V298   1.814       .  S
O294        C301   1.228       .  A
O295        V298   1.814   1_455  S
O295        C300   1.227       .  A
O296        V298   1.813   1_565  S
O296        C299   1.225       .  A
V297        V298   1.945       .  T
C303        C314   1.624       .  S
C303        C346   1.625       .  S
C303        C375   1.619       .  S
C303        C395   1.540       .  S
O304        V312   2.048   1_566  S
O304        C314   1.299       .  A
O305        V312   2.049       .  S
O305        C315   1.297       .  A
O306        V312   2.047   1_565  S
O306        C316   1.296       .  A
O307        V312   2.053   1_556  S
O307        C317   1.298       .  A
O308        V313   1.820   1_556  S
O308        C317   1.230       .  A
O309        V313   1.813   1_565  S
O309        C316   1.229       .  A
O310        V313   1.815       .  S
O310        C315   1.228       .  A
O311        V313   1.815   1_566  S
O311        C314   1.228       .  A
V312        V313   1.950       .  T
C318        C329   1.619       .  S
C318        C360   1.622       .  S
C318        C374   1.616       .  S
C318        C423   1.532       .  S
O319        V327   2.043   1_556  S
O319        C329   1.297       .  A
O320        V327   2.044   1_455  S
O320        C330   1.296       .  A
O321        V327   2.042   1_456  S
O321        C331   1.298       .  A
O322        V327   2.042       .  S
O322        C332   1.297       .  A
O323        V328   1.812       .  S
O323        C332   1.229       .  A
O324        V328   1.811   1_456  S
O324        C331   1.227       .  A
O325        V328   1.811   1_455  S
O325        C330   1.229       .  A
O326        V328   1.813   1_556  S
O326        C329   1.228       .  A
V327        V328   1.951       .  T
C333        C345   1.623       .  S
C333        C358   1.621       .  S
C333        C373   1.632       .  S
C333        C378   1.547       .  S
O334        V342   2.033   1_455  S
O334        C344   1.296       .  A
O335        V342   2.034   1_556  S
O335        C345   1.297       .  A
O336        V342   2.048   1_456  S
O336        C346   1.299       .  A
O337        V342   2.053       .  S
O337        C347   1.298       .  A
O338        V343   1.820       .  S
O338        C347   1.232       .  A
O339        V343   1.818   1_456  S
O339        C346   1.230       .  A
O340        V343   1.812   1_556  S
O340        C345   1.228       .  A
O341        V343   1.811   1_455  S
O341        C344   1.228       .  A
V342        V343   1.950       .  T
O348        V356   2.054   1_566  S
O348        C358   1.299       .  A
O349        V356   2.034       .  S
O349        C359   1.296       .  A
O350        V356   2.046   1_556  S
O350        C360   1.299       .  A
O351        V356   2.048   1_565  S
O351        C361   1.295       .  A
O352        V357   1.818   1_565  S
O352        C361   1.230       .  A
O353        V357   1.811   1_556  S
O353        C360   1.228       .  A
O354        V357   1.804       .  S
O354        C359   1.227       .  A
O355        V357   1.820   1_566  S
O355        C358   1.228       .  A
V356        V357   1.950       .  T
O362        V370   2.061   1_455  S
O362        C372   1.301       .  A
O363        V370   2.061   1_565  S
O363        C373   1.300       .  A
O364        V370   2.049       .  S
O364        C374   1.297       .  A
O365        V370   2.052   1_465  S
O365        C375   1.298       .  A
O366        V371   1.817   1_465  S
O366        C375   1.230       .  A
O367        V371   1.814       .  S
O367        C374   1.230       .  A
O368        V371   1.827   1_565  S
O368        C373   1.232       .  A
O369        V371   1.826   1_455  S
O369        C372   1.232       .  A
V370        V371   1.948       .  T
C376        C381   1.584       .  S
C376        C549   1.557       .  S
C376        C605   1.583       .  S
C376        C731   1.584       .  S
C377        C378   1.410       .  A
C377        C382   1.404       .  A
C377        H384   1.070       .  S
C378        C379   1.411       .  A
C379        C380   1.401       .  A
C379        N386   1.424       .  S
C380        C381   1.416       .  A
C380        H385   1.077       .  S
C381        C382   1.427       .  A
C382        N383   1.431       .  S
N383        O387   1.263       .  A
N383        O388   1.262       .  A
N386        O389   1.262       .  A
N386        O390   1.262       .  A
C391        C392   1.416       .  A
C391        C396   1.397       .  A
C391        H398   1.080       .  S
C392        C393   1.437       .  A
C393        C394   1.409       .  A
C393        N400   1.425       .  S
C394        C395   1.401       .  A
C394        H399   1.080       .  S
C395        C396   1.409       .  A
C396        N397   1.423       .  S
N397        O401   1.263       .  A
N397        O402   1.258       .  A
N400        O403   1.263       .  A
N400        O404   1.263       .  A
C405        C406   1.408       .  A
C405        C410   1.391       .  A
C405        H412   1.084       .  S
C406        C407   1.438       .  A
C407        C408   1.407       .  A
C407        N414   1.435       .  S
C408        C409   1.402       .  A
C408        H413   1.084       .  S
C409        C410   1.423       .  A
C410        N411   1.427       .  S
N411        O415   1.260       .  A
N411        O416   1.263       .  A
N414        O417   1.261       .  A
N414        O418   1.263       .  A
C419        C420   1.412       .  A
C419        C424   1.397       .  A
C419        H426   1.078       .  S
C420        C421   1.433       .  A
C421        C422   1.401       .  A
C421        N428   1.433       .  S
C422        C423   1.405       .  A
C422        H427   1.080       .  S
C423        C424   1.413       .  A
C424        N425   1.429       .  S
N425        O429   1.263       .  A
N425        O430   1.258       .  A
N428        O431   1.260       .  A
N428        O432   1.263       .  A
C433        C434   1.410       .  A
C433        C438   1.394       .  A
C433        H440   1.075       .  S
C434        C435   1.432       .  A
C435        C436   1.412       .  A
C435        N442   1.437       .  S
C436        C437   1.412       .  A
C436        H441   1.077       .  S
C437        C438   1.404       .  A
C438        N439   1.418       .  S
N439        O443   1.262       .  A
N439        O444   1.261       .  A
N442        O445   1.261       .  A
N442        O446   1.262       .  A
C447        C448   1.419       .  A
C447        C452   1.404       .  A
C447        H454   1.077       .  S
C448        C449   1.426       .  A
C449        C450   1.393       .  A
C449        N456   1.432       .  S
C450        C451   1.403       .  A
C450        H455   1.073       .  S
C451        C452   1.412       .  A
C452        N453   1.433       .  S
N453        O457   1.262       .  A
N453        O458   1.261       .  A
N456        O459   1.262       .  A
N456        O460   1.262       .  A
C461        C462   1.410       .  A
C461        C466   1.400       .  A
C461        H468   1.081       .  S
C462        C463   1.419       .  A
C463        C464   1.396       .  A
C463        N470   1.436       .  S
C464        C465   1.402       .  A
C464        H469   1.078       .  S
C465        C466   1.423       .  A
C466        N467   1.436       .  S
N467        O471   1.261       .  A
N467        O472   1.263       .  A
N470        O473   1.263       .  A
N470        O474   1.263       .  A
C475        C476   1.407       .  A
C475        C480   1.396       .  A
C475        H482   1.075       .  S
C476        C477   1.412       .  A
C477        C478   1.398       .  A
C477        N484   1.433       .  S
C478        C479   1.419       .  A
C478        H483   1.078       .  S
C479        C480   1.423       .  A
C480        N481   1.433       .  S
N481        O485   1.262       .  A
N481        O486   1.262       .  A
N484        O487   1.261       .  A
N484        O488   1.262       .  A
C489        C490   1.407       .  A
C489        C494   1.405       .  A
C489        H496   1.078       .  S
C490        C491   1.410       .  A
C491        C492   1.398       .  A
C491        N498   1.432       .  S
C492        C493   1.419       .  A
C492        H497   1.078       .  S
C493        C494   1.429       .  A
C494        N495   1.434       .  S
N495        O499   1.262       .  A
N495        O500   1.262       .  A
N498        O501   1.262       .  A
N498        O502   1.262       .  A
C503        C504   1.412       .  A
C503        C508   1.396       .  A
C503        H510   1.076       .  S
C504        C505   1.446       .  A
C505        C506   1.403       .  A
C505        N512   1.432       .  S
C506        C507   1.393       .  A
C506        H511   1.084       .  S
C507        C508   1.414       .  A
C508        N509   1.434       .  S
N509        O513   1.263       .  A
N509        O514   1.263       .  A
N512        O515   1.261       .  A
N512        O516   1.263       .  A
C517        C518   1.417       .  A
C517        C522   1.398       .  A
C517        H524   1.084       .  S
C518        C519   1.439       .  A
C519        C520   1.403       .  A
C519        N526   1.433       .  S
C520        C521   1.401       .  A
C520        H525   1.084       .  S
C521        C522   1.412       .  A
C522        N523   1.425       .  S
N523        O527   1.262       .  A
N523        O528   1.262       .  A
N526        O529   1.262       .  A
N526        O530   1.260       .  A
C531        C532   1.402       .  A
C531        C536   1.401       .  A
C531        H538   1.084       .  S
C532        C533   1.410       .  A
C533        C534   1.397       .  A
C533        N540   1.431       .  S
C534        C535   1.417       .  A
C534        H539   1.083       .  S
C535        C536   1.436       .  A
C536        N537   1.434       .  S
N537        O541   1.263       .  A
N537        O542   1.261       .  A
N540        O543   1.263       .  A
N540        O544   1.263       .  A
C545        C546   1.406       .  A
C545        C550   1.402       .  A
C545        H552   1.076       .  S
C546        C547   1.413       .  A
C547        C548   1.397       .  A
C547        N554   1.433       .  S
C548        C549   1.413       .  A
C548        H553   1.077       .  S
C549        C550   1.430       .  A
C550        N551   1.439       .  S
N551        O555   1.262       .  A
N551        O556   1.261       .  A
N554        O557   1.262       .  A
N554        O558   1.262       .  A
C559        C560   1.398       .  A
C559        C564   1.401       .  A
C559        H566   1.085       .  S
C560        C561   1.417       .  A
C561        C562   1.395       .  A
C561        N568   1.430       .  S
C562        C563   1.413       .  A
C562        H567   1.084       .  S
C563        C564   1.441       .  A
C564        N565   1.432       .  S
N565        O569   1.263       .  A
N565        O570   1.261       .  A
N568        O571   1.263       .  A
N568        O572   1.263       .  A
C573        C574   1.400       .  A
C573        C578   1.399       .  A
C573        H580   1.081       .  S
C574        C575   1.425       .  A
C575        C576   1.406       .  A
C575        N582   1.439       .  S
C576        C577   1.410       .  A
C576        H581   1.082       .  S
C577        C578   1.420       .  A
C578        N579   1.433       .  S
N579        O583   1.264       .  A
N579        O584   1.263       .  A
N582        O585   1.263       .  A
N582        O586   1.263       .  A
C587        C588   1.395       .  A
C587        C592   1.397       .  A
C587        H594   1.084       .  S
C588        C589   1.406       .  A
C589        C590   1.399       .  A
C589        N596   1.433       .  S
C590        C591   1.418       .  A
C590        H595   1.075       .  S
C591        C592   1.444       .  A
C592        N593   1.433       .  S
N593        O597   1.261       .  A
N593        O598   1.263       .  A
N596        O599   1.263       .  A
N596        O600   1.262       .  A
C601        C602   1.410       .  A
C601        C606   1.409       .  A
C601        H608   1.075       .  S
C602        C603   1.418       .  A
C603        C604   1.403       .  A
C603        N610   1.423       .  S
C604        C605   1.407       .  A
C604        H609   1.075       .  S
C605        C606   1.431       .  A
C606        N607   1.432       .  S
N607        O611   1.262       .  A
N607        O612   1.261       .  A
N610        O613   1.262       .  A
N610        O614   1.262       .  A
C615        C616   1.406       .  A
C615        C620   1.412       .  A
C615        H622   1.076       .  S
C616        C617   1.410       .  A
C617        C618   1.399       .  A
C617        N624   1.427       .  S
C618        C619   1.414       .  A
C618        H623   1.076       .  S
C619        C620   1.445       .  A
C620        N621   1.447       .  S
N621        O625   1.263       .  A
N621        O626   1.261       .  A
N624        O627   1.257       .  A
N624        O628   1.262       .  A
C629        C630   1.406       .  A
C629        C634   1.403       .  A
C629        H636   1.075       .  S
C630        C631   1.420       .  A
C631        C632   1.411       .  A
C631        N638   1.437       .  S
C632        C633   1.421       .  A
C632        H637   1.079       .  S
C633        C634   1.425       .  A
C634        N635   1.428       .  S
N635        O639   1.263       .  A
N635        O640   1.262       .  A
N638        O641   1.261       .  A
N638        O642   1.263       .  A
C643        C644   1.407       .  A
C643        C648   1.403       .  A
C643        H650   1.075       .  S
C644        C645   1.409       .  A
C645        C646   1.406       .  A
C645        N652   1.432       .  S
C646        C647   1.426       .  A
C646        H651   1.075       .  S
C647        C648   1.430       .  A
C648        N649   1.431       .  S
N649        O653   1.262       .  A
N649        O654   1.262       .  A
N652        O655   1.262       .  A
N652        O656   1.262       .  A
C657        C658   1.401       .  A
C657        C662   1.398       .  A
C657        H664   1.079       .  S
C658        C659   1.414       .  A
C659        C660   1.403       .  A
C659        N666   1.433       .  S
C660        C661   1.415       .  A
C660        H665   1.076       .  S
C661        C662   1.434       .  A
C662        N663   1.432       .  S
N663        O667   1.262       .  A
N663        O668   1.263       .  A
N666        O669   1.262       .  A
N666        O670   1.262       .  A
C671        C672   1.413       .  A
C671        C676   1.399       .  A
C671        H678   1.078       .  S
C672        C673   1.431       .  A
C673        C674   1.406       .  A
C673        N680   1.431       .  S
C674        C675   1.407       .  A
C674        H679   1.076       .  S
C675        C676   1.408       .  A
C676        N677   1.421       .  S
N677        O681   1.262       .  A
N677        O682   1.261       .  A
N680        O683   1.262       .  A
N680        O684   1.262       .  A
C685        C686   1.399       .  A
C685        C690   1.411       .  A
C685        H692   1.079       .  S
C686        C687   1.414       .  A
C687        C688   1.409       .  A
C687        N694   1.436       .  S
C688        C689   1.420       .  A
C688        H693   1.081       .  S
C689        C690   1.460       .  A
C690        N691   1.458       .  S
N691        O695   1.264       .  A
N691        O696   1.257       .  A
N694        O697   1.263       .  A
N694        O698   1.262       .  A
C699        C700   1.404       .  A
C699        C704   1.404       .  A
C699        H706   1.077       .  S
C700        C701   1.405       .  A
C701        C702   1.400       .  A
C701        N708   1.424       .  S
C702        C703   1.423       .  A
C702        H707   1.080       .  S
C703        C704   1.432       .  A
C704        N705   1.426       .  S
N705        O709   1.263       .  A
N705        O710   1.263       .  A
N708        O711   1.263       .  A
N708        O712   1.259       .  A
C713        C714   1.408       .  A
C713        C718   1.401       .  A
C713        H720   1.078       .  S
C714        C715   1.414       .  A
C715        C716   1.406       .  A
C715        N722   1.436       .  S
C716        C717   1.421       .  A
C716        H721   1.078       .  S
C717        C718   1.431       .  A
C718        N719   1.434       .  S
N719        O723   1.261       .  A
N719        O724   1.262       .  A
N722        O725   1.263       .  A
N722        O726   1.261       .  A
C727        C728   1.397       .  A
C727        C732   1.403       .  A
C727        H734   1.084       .  S
C728        C729   1.418       .  A
C729        C730   1.402       .  A
C729        N736   1.430       .  S
C730        C731   1.416       .  A
C730        H735   1.083       .  S
C731        C732   1.442       .  A
C732        N733   1.434       .  S
N733        O737   1.263       .  A
N733        O738   1.261       .  A
N736        O739   1.263       .  A
N736        O740   1.263       .  A
C741        C742   1.401       .  A
C741        C746   1.407       .  A
C741        H748   1.077       .  S
C742        C743   1.413       .  A
C743        C744   1.396       .  A
C743        N750   1.436       .  S
C744        C745   1.418       .  A
C744        H749   1.076       .  S
C745        C746   1.445       .  A
C746        N747   1.449       .  S
N747        O751   1.263       .  A
N747        O752   1.261       .  A
N750        O753   1.261       .  A
N750        O754   1.263       .  A
C755        C756   1.409       .  A
C755        C760   1.400       .  A
C755        H762   1.076       .  S
C756        C757   1.412       .  A
C757        C758   1.407       .  A
C757        N764   1.432       .  S
C758        C759   1.422       .  A
C758        H763   1.077       .  S
C759        C760   1.427       .  A
C760        N761   1.433       .  S
N761        O765   1.262       .  A
N761        O766   1.262       .  A
N764        O767   1.262       .  A
N764        O768   1.262       .  A
C769        C770   1.407       .  A
C769        C774   1.393       .  A
C769        H776   1.069       .  S
C770        C771   1.414       .  A
C771        C772   1.400       .  A
C771        N778   1.427       .  S
C772        C773   1.411       .  A
C772        H777   1.076       .  S
C773        C774   1.424       .  A
C774        N775   1.431       .  S
N775        O779   1.263       .  A
N775        O780   1.261       .  A
N778        O781   1.262       .  A
N778        O782   1.262       .  A
C783        C784   1.400       .  A
C783        C788   1.397       .  A
C783        H790   1.076       .  S
C784        C785   1.418       .  A
C785        C786   1.404       .  A
C785        N792   1.437       .  S
C786        C787   1.416       .  A
C786        H791   1.076       .  S
C787        C788   1.431       .  A
C788        N789   1.431       .  S
N789        O793   1.261       .  A
N789        O794   1.262       .  A
N792        O795   1.259       .  A
N792        O796   1.263       .  A
C797        C798   1.398       .  A
C797        C802   1.408       .  A
C797        H804   1.081       .  S
C798        C799   1.411       .  A
C799        C800   1.401       .  A
C799        N806   1.430       .  S
C800        C801   1.416       .  A
C800        H805   1.080       .  S
C801        C802   1.455       .  A
C802        N803   1.450       .  S
N803        O807   1.263       .  A
N803        O808   1.259       .  A
N806        O809   1.263       .  A
N806        O810   1.259       .  A
C811        C812   1.411       .  A
C811        C816   1.397       .  A
C811        H818   1.084       .  S
C812        C813   1.442       .  A
C813        C814   1.410       .  A
C813        N820   1.439       .  S
C814        C815   1.403       .  A
C814        H819   1.083       .  S
C815        C816   1.419       .  A
C816        N817   1.425       .  S
N817        O821   1.261       .  A
N817        O822   1.262       .  A
N820        O823   1.260       .  A
N820        O824   1.263       .  A
