geometry optimzed in LAMMPS
_audit_creation_date              2020-11-30 
_audit_creation_method            'lammps2cif' 
_symmetry_space_group_name_H-M    'P1' 
_symmetry_Int_Tables_number       1 
_symmetry_cell_setting            triclinic 
loop_ 
_symmetry_equiv_pos_as_xyz 
  x,y,z 
_cell_length_a                    35.37649762 
_cell_length_b                    35.291041838911816 
_cell_length_c                    34.82846814333482 
_cell_angle_alpha                 90.55554478500356 
_cell_angle_beta                  89.97853814245518 
_cell_angle_gamma                 89.88973831181062 
loop_ 
_atom_site_label 
_atom_site_type_symbol 
_atom_site_fract_x 
_atom_site_fract_y 
_atom_site_fract_z 
_atom_site_charge 
C1          C  0.34805382  0.66595445  0.15435376     0.85700
C2          C  0.37481288  0.68768370  0.12591575    -0.54600
C3          C  0.39618127  0.66379360  0.10371881     0.08600
C4          C  0.38950645  0.62215664  0.11267026     0.19600
C5          C  0.32515140  0.63846847  0.12770745    -0.55300
C6          C  0.34745137  0.61550914  0.10580678     0.08700
C7          C  0.37527013  0.64007713  0.17789925    -0.54800
C8          C  0.39705150  0.61705359  0.15552703     0.09300
H9          H  0.37622479  0.71802474  0.12216712     0.13800
H10         H  0.40725132  0.60297803  0.09512728    -0.00500
H11         H  0.29452016  0.63804152  0.12590781     0.14100
H12         H  0.37699531  0.64024826  0.20901781     0.13900
C13         C  0.59648189  0.40286355  0.15584536     0.85700
C14         C  0.56860881  0.42809979  0.17986279    -0.54600
C15         C  0.54543079  0.44960464  0.15773704     0.08600
C16         C  0.55321013  0.44488236  0.11483949     0.19600
C17         C  0.57080152  0.38018449  0.12698884    -0.55300
C18         C  0.54805988  0.40291833  0.10538204     0.08700
C19         C  0.61824682  0.43144176  0.12971072    -0.54800
C20         C  0.59491778  0.45360556  0.10872931     0.09300
H21         H  0.56697835  0.42806470  0.21098995     0.13800
H22         H  0.53491960  0.46312770  0.09715157    -0.00500
H23         H  0.57115671  0.34956806  0.12381263     0.14100
H24         H  0.64848973  0.43436224  0.12683848     0.13900
C25         C  0.60177856  0.65488908  0.15747240     0.85700
C26         C  0.62368295  0.62947800  0.12721131    -0.54600
C27         C  0.60020717  0.60898038  0.10382130     0.08600
C28         C  0.55865643  0.61499351  0.11329987     0.19600
C29         C  0.57441174  0.67908827  0.13177845    -0.55300
C30         C  0.55147950  0.65744614  0.10862898     0.08700
C31         C  0.57580090  0.62675393  0.17916158    -0.54800
C32         C  0.55355877  0.60567640  0.15559638     0.09300
H33         H  0.65395657  0.62858082  0.12300143     0.13800
H34         H  0.54004545  0.59728172  0.09515292    -0.00500
H35         H  0.57352639  0.70982171  0.13205705     0.14100
H36         H  0.57562487  0.62355692  0.21014052     0.13900
C37         C  0.33996335  0.40526094  0.16041019     0.85700
C38         C  0.31751987  0.43219470  0.13246528    -0.54600
C39         C  0.34052735  0.45498642  0.11082092     0.08600
C40         C  0.38225284  0.44748885  0.11835577     0.19600
C41         C  0.36731363  0.38289455  0.13238980    -0.55300
C42         C  0.38967948  0.40560551  0.11097255     0.08700
C43         C  0.36697576  0.43227250  0.18364604    -0.54800
C44         C  0.38821639  0.45524766  0.16092869     0.09300
H45         H  0.28698094  0.43298069  0.13008766     0.13800
H46         H  0.40083393  0.46466113  0.10019073    -0.00500
H47         H  0.36955491  0.35262176  0.12852649     0.14100
H48         H  0.36841520  0.43349008  0.21475077     0.13900
O49         O  0.42231622  0.50807976  0.14266955    -0.72600
O50         O  0.51664619  0.55367194  0.13867822    -0.72800
O51         O  0.49194184  0.48336674  0.14175727    -0.72700
O52         O  0.44697528  0.57784790  0.13906105    -0.72700
O53         O  0.43036034  0.57159543  0.19840167    -0.72600
O54         O  0.51073762  0.49503228  0.19973409    -0.72700
O55         O  0.50835280  0.57282225  0.19740374    -0.72600
O56         O  0.43275643  0.49257665  0.20154669    -0.72800
V57         V  0.46946465  0.53069962  0.14140135     1.35200
V58         V  0.47044076  0.53306584  0.19983581     1.35200
C59         C  0.41445845  0.48703127  0.17045298     0.76700
C60         C  0.52604291  0.57569274  0.16562923     0.76700
C61         C  0.51427351  0.47589826  0.16860446     0.76600
C62         C  0.42633094  0.58858657  0.16633094     0.76500
C63         C  0.33396086  0.40178989  0.89846283     0.85700
C64         C  0.31360849  0.42983576  0.92731430    -0.54600
C65         C  0.33803802  0.45095246  0.94853920     0.08600
C66         C  0.37916238  0.44236524  0.93922346     0.19600
C67         C  0.36081376  0.42752863  0.87433740    -0.55300
C68         C  0.38439133  0.44913312  0.89637760     0.08700
C69         C  0.36093749  0.37810687  0.92514343    -0.54800
C70         C  0.38466062  0.40022323  0.94690818     0.09300
H71         H  0.28360465  0.43203173  0.93266847     0.13800
H72         H  0.39873813  0.45992716  0.95620396    -0.00500
H73         H  0.36016142  0.42913943  0.84323749     0.14100
H74         H  0.36003423  0.34748115  0.92747440     0.13900
C75         C  0.59478011  0.39592020  0.89586795     0.85700
C76         C  0.56816752  0.42270005  0.87264253    -0.54600
C77         C  0.54566059  0.44487369  0.89539727     0.08600
C78         C  0.55277427  0.43887141  0.93807888     0.19600
C79         C  0.61725802  0.42255667  0.92405216    -0.55300
C80         C  0.59461343  0.44486371  0.94627896     0.08700
C81         C  0.56764638  0.37368729  0.92363672    -0.54800
C82         C  0.54479072  0.39710452  0.94500515     0.09300
H83         H  0.56643373  0.42273338  0.84153122     0.13800
H84         H  0.53555910  0.45812381  0.95604647    -0.00500
H85         H  0.64767830  0.42235488  0.92782228     0.14100
H86         H  0.56644466  0.34311337  0.92602366     0.13900
C87         C  0.60041246  0.64869162  0.88869089     0.85700
C88         C  0.57624721  0.67412717  0.91683965    -0.54600
C89         C  0.55432007  0.65384519  0.94162534     0.08600
C90         C  0.55792335  0.61128902  0.93490806     0.19600
C91         C  0.62257812  0.62108901  0.91565530    -0.55300
C92         C  0.59963583  0.60156064  0.93984325     0.08700
C93         C  0.57125036  0.62164972  0.86836121    -0.54800
C94         C  0.54896434  0.60250691  0.89314684     0.09300
H95         H  0.57768812  0.70483880  0.91772458     0.13800
H96         H  0.53912387  0.59535514  0.95412877    -0.00500
H97         H  0.65295128  0.61675847  0.91477994     0.14100
H98         H  0.57030238  0.61381743  0.83856474     0.13900
C99         C  0.34454352  0.66027454  0.89502539     0.85700
C100        C  0.37302935  0.68278052  0.92179728    -0.54600
C101        C  0.39542569  0.65995290  0.94344393     0.08600
C102        C  0.38638086  0.61808820  0.93766801     0.19600
C103        C  0.37034652  0.63186449  0.87209713    -0.55300
C104        C  0.39240501  0.60985469  0.89508581     0.08700
C105        C  0.32194128  0.63520266  0.92417155    -0.54800
C106        C  0.34444423  0.61199981  0.94559307     0.09300
H107        H  0.37598851  0.71318464  0.92405738     0.13800
H108        H  0.40379232  0.60033172  0.95659480    -0.00500
H109        H  0.37166286  0.63028207  0.84099657     0.14100
H110        H  0.29146500  0.63562376  0.92734542     0.13900
O111        O  0.30019606  0.49747828  0.98633015    -0.72600
O112        O  0.30489409  0.57184433  0.07011299    -0.72800
O113        O  0.30351408  0.57606802  0.99102165    -0.72700
O114        O  0.30105797  0.49333042  0.06566217    -0.72700
O115        O  0.36051976  0.50512010  0.07261158    -0.72600
O116        O  0.36151288  0.55908316  0.98156450    -0.72700
O117        O  0.36382559  0.57690086  0.05446658    -0.72600
O118        O  0.35891618  0.48703699  0.99987740    -0.72800
V119        V  0.30223379  0.53467079  0.02825526     1.35200
V120        V  0.36006282  0.53205657  0.02713496     1.35200
C121        C  0.33061865  0.47896530  0.97982394     0.76700
C122        C  0.33696731  0.58757163  0.07542814     0.76700
C123        C  0.33469260  0.58100661  0.97324899     0.76600
C124        C  0.33224867  0.48591733  0.08247356     0.76500
O125        O  0.51325445  0.69785399  0.98024586    -0.72600
O126        O  0.44108719  0.70219344  0.06566670    -0.72800
O127        O  0.51874037  0.69887141  0.06075524    -0.72700
O128        O  0.43497396  0.70078819  0.98653619    -0.72700
O129        O  0.44897795  0.64177952  0.97737342    -0.72600
O130        O  0.50054756  0.64127061  0.06998217    -0.72700
O131        O  0.42956828  0.64391453  0.04990495    -0.72600
O132        O  0.52063189  0.63965253  0.99720217    -0.72800
V133        V  0.47717395  0.70035680  0.02319549     1.35200
V134        V  0.47505800  0.64262858  0.02356102     1.35200
C135        C  0.52943187  0.66584499  0.97466820     0.76700
C136        C  0.42248458  0.67182104  0.07142173     0.76700
C137        C  0.52212842  0.66795569  0.07944138     0.76600
C138        C  0.42807178  0.66937611  0.96929805     0.76500
O139        O  0.58046135  0.55201706  0.97737588    -0.72600
O140        O  0.57805992  0.50465749  0.07129348    -0.72800
O141        O  0.58128619  0.57531607  0.04932093    -0.72700
O142        O  0.57767916  0.48189987  0.99927428    -0.72700
O143        O  0.63635593  0.48832239  0.98311788    -0.72600
O144        O  0.63921843  0.56409571  0.06556210    -0.72700
O145        O  0.63596800  0.48645922  0.06254632    -0.72600
O146        O  0.63930849  0.56624209  0.98596624    -0.72800
V147        V  0.58032847  0.52850279  0.02431913     1.35200
V148        V  0.63806125  0.52626494  0.02429383     1.35200
C149        C  0.60840170  0.57159581  0.96793374     0.76700
C150        C  0.60473843  0.48318239  0.08059132     0.76700
C151        C  0.60877636  0.58281753  0.07101096     0.76600
C152        C  0.60463435  0.47189223  0.97788800     0.76500
O153        O  0.42859019  0.35963489  0.98559395    -0.72600
O154        O  0.50266298  0.36212254  0.06953442    -0.72800
O155        O  0.42450567  0.36329796  0.06545918    -0.72700
O156        O  0.50701383  0.35849279  0.99054132    -0.72700
O157        O  0.49278672  0.41705749  0.98016553    -0.72600
O158        O  0.43990595  0.42229903  0.07162000    -0.72700
O159        O  0.51160740  0.42033541  0.05290149    -0.72600
O160        O  0.42125319  0.41897585  0.99910860    -0.72800
V161        V  0.46559769  0.36064809  0.02780223     1.35200
V162        V  0.46637766  0.41856600  0.02592758     1.35200
C163        C  0.41187171  0.39098798  0.97871697     0.76700
C164        C  0.52044643  0.39329319  0.07434221     0.76700
C165        C  0.41938300  0.39534651  0.08210090     0.76600
C166        C  0.51333399  0.38899416  0.97227743     0.76500
O167        O  0.44205361  0.57144242  0.91325559    -0.72600
O168        O  0.49274008  0.47986735  0.91311295    -0.72800
O169        O  0.51287112  0.55136832  0.91306094    -0.72700
O170        O  0.42149625  0.50061126  0.91337932    -0.72700
O171        O  0.42939340  0.48389874  0.85412193    -0.72600
O172        O  0.50392663  0.56565279  0.85343755    -0.72700
O173        O  0.50800752  0.48769147  0.85365395    -0.72600
O174        O  0.42610942  0.56257900  0.85393843    -0.72800
V175        V  0.46725472  0.52569267  0.91215490     1.35200
V176        V  0.46681080  0.52487137  0.85346696     1.35200
C177        C  0.42155233  0.58073690  0.88551332     0.76700
C178        C  0.51390386  0.47101781  0.88547324     0.76700
C179        C  0.52148115  0.57161343  0.88493115     0.76600
C180        C  0.41207733  0.47935551  0.88593153     0.76500
C181        C  0.59879940  0.16569435  0.65818535     0.85700
C182        C  0.57396197  0.13675993  0.68117752    -0.54600
C183        C  0.55043564  0.11591901  0.65828764     0.08600
C184        C  0.55582017  0.12423399  0.61577645     0.19600
C185        C  0.62075861  0.13964999  0.62885805    -0.55300
C186        C  0.59752280  0.11839232  0.60620408     0.08700
C187        C  0.57015604  0.18869804  0.63338478    -0.54800
C188        C  0.54728027  0.16623323  0.61149005     0.09300
H189        H  0.57442057  0.13342396  0.71207485     0.13800
H190        H  0.53781502  0.10620415  0.59740098    -0.00500
H191        H  0.65124902  0.13758173  0.62651733     0.14100
H192        H  0.56764472  0.21935418  0.63423188     0.13900
C193        C  0.59293577  0.16139754  0.40012920     0.85700
C194        C  0.61609228  0.13350525  0.42552353    -0.54600
C195        C  0.59402353  0.11103399  0.44773043     0.08600
C196        C  0.55204314  0.11937565  0.44353898     0.19600
C197        C  0.56423772  0.13506626  0.37746202    -0.55300
C198        C  0.54316880  0.11221788  0.40115149     0.08700
C199        C  0.56680197  0.18393196  0.42874540    -0.54800
C200        C  0.54632868  0.16140243  0.45209869     0.09300
H201        H  0.64669105  0.13118246  0.42490642     0.13800
H202        H  0.53441056  0.10229995  0.46287535    -0.00500
H203        H  0.56175990  0.13390469  0.34644716     0.14100
H204        H  0.56395187  0.21445740  0.43041695     0.13900
C205        C  0.34159655  0.16681230  0.66531440     0.85700
C206        C  0.37044514  0.14013420  0.68636931    -0.54600
C207        C  0.39066034  0.11790286  0.66193214     0.08600
C208        C  0.38090101  0.12443800  0.61998472     0.19600
C209        C  0.36633703  0.18939803  0.63621603    -0.55300
C210        C  0.38666566  0.16658245  0.61206657     0.08700
C211        C  0.31742863  0.13872169  0.63999696    -0.54800
C212        C  0.33883364  0.11613421  0.61632679     0.09300
H213        H  0.37412686  0.13687199  0.71691598     0.13800
H214        H  0.39811987  0.10648250  0.60071662    -0.00500
H215        H  0.36720128  0.22009952  0.63484967     0.14100
H216        H  0.28691137  0.13626267  0.64187235     0.13900
C217        C  0.33774885  0.16391501  0.40509761     0.85700
C218        C  0.36657330  0.18578401  0.43074320    -0.54600
C219        C  0.38802074  0.16293207  0.45293648     0.08600
C220        C  0.37862335  0.12111537  0.44800975     0.19600
C221        C  0.36300972  0.13404641  0.38232081    -0.55300
C222        C  0.38481032  0.11198373  0.40560617     0.08700
C223        C  0.31435351  0.13828361  0.43320138    -0.54800
C224        C  0.33646929  0.11623934  0.45638711     0.09300
H225        H  0.37060848  0.21626363  0.43003926     0.13800
H226        H  0.39610726  0.10318297  0.46668113    -0.00500
H227        H  0.36429775  0.13016275  0.35154106     0.14100
H228        H  0.28375001  0.13730992  0.43417172     0.13900
O229        O  0.44126219  0.14566015  0.48702316    -0.72600
O230        O  0.49275913  0.14869997  0.57941682    -0.72800
O231        O  0.42154985  0.14828669  0.55895803    -0.72700
O232        O  0.51257594  0.14566997  0.50680969    -0.72700
O233        O  0.50311224  0.20352788  0.48910694    -0.72600
O234        O  0.43126319  0.20680384  0.57472250    -0.72700
O235        O  0.50948876  0.20640758  0.56799240    -0.72600
O236        O  0.42539495  0.20441994  0.49571631    -0.72800
V237        V  0.46709330  0.14799118  0.53311588     1.35200
V238        V  0.46732449  0.20576285  0.53188733     1.35200
C239        C  0.41990606  0.17278264  0.47861225     0.76700
C240        C  0.51475649  0.17580363  0.58640871     0.76700
C241        C  0.41333555  0.17590770  0.58029842     0.76600
C242        C  0.52046873  0.17203356  0.48424865     0.76500
C243        C  0.59274452  0.89908561  0.40439971     0.85700
C244        C  0.56501967  0.87741728  0.43141685    -0.54600
C245        C  0.54294199  0.90091048  0.45323826     0.08600
C246        C  0.55137884  0.94261363  0.44672662     0.19600
C247        C  0.56668965  0.92703274  0.38109672    -0.55300
C248        C  0.54426370  0.94948505  0.40410000     0.08700
C249        C  0.61568582  0.92641574  0.43164580    -0.54800
C250        C  0.59337152  0.94875566  0.45421335     0.09300
H251        H  0.56262287  0.84677349  0.43220288     0.13800
H252        H  0.53430035  0.96128115  0.46537543    -0.00500
H253        H  0.56563212  0.92825531  0.35002142     0.14100
H254        H  0.64616527  0.92892307  0.43266583     0.13900
C255        C  0.33482559  0.90006266  0.40976775     0.85700
C256        C  0.31183332  0.92900814  0.43530323    -0.54600
C257        C  0.33427316  0.95286625  0.45654468     0.08600
C258        C  0.37622788  0.94453847  0.45100801     0.19600
C259        C  0.36263953  0.92555466  0.38591268    -0.55300
C260        C  0.38402984  0.94954261  0.40822134     0.08700
C261        C  0.36156700  0.87910412  0.43874805    -0.54800
C262        C  0.38270190  0.90295084  0.46056700     0.09300
H263        H  0.28121296  0.93094447  0.43537744     0.13800
H264        H  0.39431863  0.96278510  0.46900811    -0.00500
H265        H  0.36423118  0.92523066  0.35480103     0.14100
H266        H  0.36470715  0.84889261  0.44216902     0.13900
C267        C  0.34010006  0.90833337  0.66856330     0.85700
C268        C  0.36674316  0.93783714  0.68982873    -0.54600
C269        C  0.38798882  0.95896272  0.66529244     0.08600
C270        C  0.38014275  0.94947216  0.62332008     0.19600
C271        C  0.31625241  0.93349810  0.64051091    -0.55300
C272        C  0.33782313  0.95471106  0.61626459     0.08700
C273        C  0.36833364  0.88542601  0.64263697    -0.54800
C274        C  0.38928687  0.90755445  0.61897342     0.09300
H275        H  0.37080176  0.94093096  0.72042129     0.13800
H276        H  0.39706720  0.96695751  0.60375275    -0.00500
H277        H  0.28559691  0.93429755  0.64007372     0.14100
H278        H  0.37284291  0.85508995  0.64461859     0.13900
C279        C  0.59999458  0.91042457  0.66147956     0.85700
C280        C  0.62138560  0.93812551  0.63399985    -0.54600
C281        C  0.59760349  0.95908378  0.61219302     0.08600
C282        C  0.55618986  0.95000039  0.61888159     0.19600
C283        C  0.57223269  0.93683049  0.68455043    -0.55300
C284        C  0.54924962  0.95770045  0.66147283     0.08700
C285        C  0.57413701  0.88622314  0.63414822    -0.54800
C286        C  0.55103647  0.90762101  0.61176205     0.09300
H287        H  0.65154490  0.94239361  0.63208834     0.13800
H288        H  0.53752670  0.96672176  0.60022295    -0.00500
H289        H  0.57189258  0.93942330  0.71562939     0.14100
H290        H  0.57449844  0.85549147  0.63269326     0.13900
O291        O  0.57740815  0.05817074  0.48250197    -0.72600
O292        O  0.57893892  0.01115536  0.57697737    -0.72800
O293        O  0.57893429  0.08170076  0.55394330    -0.72700
O294        O  0.57703569  0.98779585  0.50560322    -0.72700
O295        O  0.63492961  0.99568405  0.48747712    -0.72600
O296        O  0.63735669  0.07245420  0.56951321    -0.72700
O297        O  0.63691472  0.99421477  0.56638998    -0.72600
O298        O  0.63580630  0.07446907  0.49050838    -0.72800
V299        V  0.57899244  0.03472469  0.52972362     1.35200
V300        V  0.63667005  0.03420203  0.52839553     1.35200
C301        C  0.60432650  0.07946128  0.47349356     0.76700
C302        C  0.60625001  0.98986730  0.58503401     0.76700
C303        C  0.60649042  0.09064612  0.57483444     0.76600
C304        C  0.60367816  0.97781162  0.48392297     0.76500
O305        O  0.43503140  0.08117487  0.70219053    -0.72600
O306        O  0.50574676  0.99592863  0.70277646    -0.72800
O307        O  0.51296505  0.07374951  0.70072511    -0.72700
O308        O  0.42755157  0.00333955  0.70432415    -0.72700
O309        O  0.43966615  0.99346619  0.64424338    -0.72600
O310        O  0.49827556  0.07991078  0.64087346    -0.72700
O311        O  0.51207761  0.00773933  0.64237763    -0.72600
O312        O  0.42580306  0.06594841  0.64261890    -0.72800
V313        V  0.47028722  0.03855637  0.70263711     1.35200
V314        V  0.46896830  0.03675843  0.64375752     1.35200
C315        C  0.41782761  0.08704942  0.67059247     0.76700
C316        C  0.52173269  0.98843728  0.67073663     0.76700
C317        C  0.51934774  0.08919338  0.66837339     0.76600
C318        C  0.41977980  0.98590857  0.67301943     0.76500
O319        O  0.29615974  0.99946603  0.57971460    -0.72600
O320        O  0.29540424  0.07164313  0.49393824    -0.72800
O321        O  0.29427175  0.99263016  0.50039186    -0.72700
O322        O  0.29679673  0.07809528  0.57334271    -0.72700
O323        O  0.35517268  0.06187952  0.58144304    -0.72600
O324        O  0.35250248  0.00741295  0.48968037    -0.72700
O325        O  0.35412876  0.07963803  0.50864409    -0.72600
O326        O  0.35394911  0.98953998  0.56239898    -0.72800
V327        V  0.29527160  0.03547231  0.53680685     1.35200
V328        V  0.35291203  0.03462324  0.53556483     1.35200
C329        C  0.32724843  0.98150083  0.58461420     0.76700
C330        C  0.32669306  0.08880703  0.48781764     0.76700
C331        C  0.32504228  0.98597403  0.48230439     0.76600
C332        C  0.32834511  0.08374380  0.59027558     0.76500
O333        O  0.50539205  0.99299494  0.36306868    -0.72600
O334        O  0.42081331  0.06569009  0.36446061    -0.72800
O335        O  0.49884912  0.07190328  0.36181084    -0.72700
O336        O  0.42701822  0.98685165  0.36547048    -0.72700
O337        O  0.42148160  0.00124274  0.42558732    -0.72600
O338        O  0.50789373  0.06041447  0.42183608    -0.72700
O339        O  0.43528018  0.07416217  0.42416145    -0.72600
O340        O  0.49398787  0.98746249  0.42359990    -0.72800
V341        V  0.46300470  0.02931026  0.36363261     1.35200
V342        V  0.46464726  0.03078341  0.42248619     1.35200
C343        C  0.51325048  0.97729991  0.39504232     0.76700
C344        C  0.41480854  0.08311124  0.39626911     0.76700
C345        C  0.51597389  0.08013335  0.39309788     0.76600
C346        C  0.41150470  0.98044095  0.39792791     0.76500
O347        O  0.42833300  0.86300805  0.49673135    -0.72600
O348        O  0.50456981  0.86535958  0.57850756    -0.72800
O349        O  0.42602865  0.86545507  0.57577723    -0.72700
O350        O  0.50674510  0.86208950  0.49939927    -0.72700
O351        O  0.49064420  0.92017454  0.48870857    -0.72600
O352        O  0.44216769  0.92418599  0.58322200    -0.72700
O353        O  0.51308447  0.92298179  0.56004282    -0.72600
O354        O  0.42009674  0.92205276  0.51171688    -0.72800
V355        V  0.46638370  0.86358412  0.53763783     1.35200
V356        V  0.46653432  0.92138925  0.53599940     1.35200
C357        C  0.41070133  0.89419683  0.49129286     0.76700
C358        C  0.52262225  0.89658458  0.58189227     0.76700
C359        C  0.42092481  0.89727560  0.59265788     0.76600
C360        C  0.51173182  0.89250289  0.48060304     0.76500
C361        C  0.84470641  0.40542024  0.67242755     0.85700
C362        C  0.87399724  0.38328376  0.64692269    -0.54600
C363        C  0.89544525  0.40626086  0.62425886     0.08600
C364        C  0.88500013  0.44797822  0.62873761     0.19600
C365        C  0.86888607  0.43614939  0.69469120    -0.55300
C366        C  0.89039575  0.45827666  0.67104041     0.08700
C367        C  0.82116198  0.42970797  0.64344905    -0.54800
C368        C  0.84288312  0.45135367  0.62008757     0.09300
H369        H  0.87735870  0.35271319  0.64720553     0.13800
H370        H  0.90187189  0.46617622  0.60976120    -0.00500
H371        H  0.86826470  0.44079143  0.72547547     0.14100
H372        H  0.79056553  0.43014029  0.64166987     0.13900
C373        C  0.83982069  0.40214366  0.41090310     0.85700
C374        C  0.86931395  0.42675332  0.38855267    -0.54600
C375        C  0.89021631  0.44990354  0.41168393     0.08600
C376        C  0.88039266  0.44571175  0.45401668     0.19600
C377        C  0.86508768  0.38030720  0.44059884    -0.55300
C378        C  0.88607587  0.40390913  0.46349573     0.08700
C379        C  0.81641335  0.43107309  0.43592039    -0.54800
C380        C  0.83829774  0.45420637  0.45842739     0.09300
H381        H  0.87380300  0.42532873  0.35775758     0.13800
H382        H  0.89782172  0.46452065  0.47218901    -0.00500
H383        H  0.86726165  0.34978043  0.44273669     0.14100
H384        H  0.78580105  0.43303483  0.43531783     0.13900
C385        C  0.83244936  0.65947173  0.41212755     0.85700
C386        C  0.86111118  0.68182692  0.43835223    -0.54600
C387        C  0.88487242  0.65902291  0.45828853     0.08600
C388        C  0.87563031  0.61729928  0.45323928     0.19600
C389        C  0.85743482  0.63087225  0.38824436    -0.55300
C390        C  0.87989593  0.60833493  0.41058454     0.08700
C391        C  0.81057455  0.63427878  0.44160309    -0.54800
C392        C  0.83394898  0.61250880  0.46349291     0.09300
H393        H  0.86237073  0.71235778  0.44154469     0.13800
H394        H  0.89402002  0.59963729  0.47129136    -0.00500
H395        H  0.85718527  0.62898522  0.35712813     0.14100
H396        H  0.78022359  0.63488114  0.44596630     0.13900
C397        C  0.84318633  0.66454285  0.67092646     0.85700
C398        C  0.81879005  0.63459549  0.64798821    -0.54600
C399        C  0.84003044  0.61041045  0.62557746     0.08600
C400        C  0.88219154  0.61928885  0.62795830     0.19600
C401        C  0.87305502  0.64047411  0.69331174    -0.55300
C402        C  0.89371085  0.61688927  0.67004815     0.08700
C403        C  0.86670646  0.68471003  0.63888884    -0.54800
C404        C  0.88680345  0.66045207  0.61667730     0.09300
H405        H  0.78820459  0.63298327  0.64953636     0.13800
H406        H  0.89931030  0.60045217  0.60942526    -0.00500
H407        H  0.87781418  0.64278156  0.72402935     0.14100
H408        H  0.86773079  0.71455746  0.63263823     0.13900
O409        O  0.92320845  0.70043256  0.50058260    -0.72600
O410        O  0.00677441  0.70292866  0.57350629    -0.72800
O411        O  0.00153402  0.70246077  0.49479238    -0.72700
O412        O  0.92906019  0.70081722  0.57894588    -0.72700
O413        O  0.92179024  0.64156802  0.56384594    -0.72600
O414        O  0.01167378  0.64400768  0.50985442    -0.72700
O415        O  0.99350936  0.64380896  0.58242325    -0.72600
O416        O  0.93949946  0.64194138  0.49108321    -0.72800
V417        V  0.96511493  0.70188589  0.53690729     1.35200
V418        V  0.96661996  0.64385689  0.53671442     1.35200
C419        C  0.91749663  0.66887448  0.48344826     0.76700
C420        C  0.01365442  0.67198245  0.59080446     0.76700
C421        C  0.02001140  0.67179477  0.48931982     0.76600
C422        C  0.91265331  0.66923361  0.58471981     0.76500
O423        O  0.93660704  0.49571802  0.71045264    -0.72600
O424        O  0.01079103  0.57841963  0.70720259    -0.72800
O425        O  0.93253219  0.57404042  0.71026216    -0.72700
O426        O  0.01518080  0.50037159  0.70759811    -0.72700
O427        O  0.99789726  0.49046162  0.64878368    -0.72600
O428        O  0.94586851  0.58184572  0.65026922    -0.72700
O429        O  0.01733088  0.56204424  0.64761320    -0.72600
O430        O  0.92602624  0.51012836  0.65126469    -0.72800
V431        V  0.97377747  0.53708780  0.70917986     1.35200
V432        V  0.97176998  0.53611622  0.65052969     1.35200
C433        C  0.91785456  0.48982209  0.67954970     0.76700
C434        C  0.02725464  0.58331986  0.67493807     0.76700
C435        C  0.92587872  0.59094596  0.67874689     0.76600
C436        C  0.02009281  0.48277983  0.67578943     0.76500
O437        O  0.92531637  0.57275828  0.36860508    -0.72600
O438        O  0.00301512  0.49345841  0.36775662    -0.72800
O439        O  0.92494954  0.49432463  0.36977303    -0.72700
O440        O  0.00375193  0.57180686  0.36666717    -0.72700
O441        O  0.99023631  0.58082620  0.42662113    -0.72600
O442        O  0.94120894  0.48783669  0.42924257    -0.72700
O443        O  0.01217468  0.50949478  0.42713455    -0.72600
O444        O  0.91934006  0.55875783  0.42852433    -0.72800
V445        V  0.96427205  0.53309108  0.36800794     1.35200
V446        V  0.96573829  0.53427080  0.42678143     1.35200
C447        C  0.90845840  0.57828987  0.40061535     0.76700
C448        C  0.02118097  0.48873834  0.39903721     0.76700
C449        C  0.92052775  0.47750489  0.40176058     0.76600
C450        C  0.00978083  0.58987311  0.39799362     0.76500
O451        O  0.01668962  0.42648812  0.56303815    -0.72600
O452        O  0.92356155  0.42341897  0.51454820    -0.72800
O453        O  0.94604906  0.42504836  0.58615884    -0.72700
O454        O  0.99432779  0.42454566  0.49121791    -0.72700
O455        O  0.01106725  0.36626870  0.49974868    -0.72600
O456        O  0.93202481  0.36585552  0.57851856    -0.72700
O457        O  0.93272004  0.36466033  0.49906265    -0.72600
O458        O  0.01036317  0.36779836  0.57912959    -0.72800
V459        V  0.97017731  0.42382904  0.53872453     1.35200
V460        V  0.97155085  0.36588917  0.53912992     1.35200
C461        C  0.02722583  0.39950526  0.58370560     0.76700
C462        C  0.91437385  0.39544051  0.49409356     0.76700
C463        C  0.92628734  0.39723289  0.59615162     0.76600
C464        C  0.01538880  0.39726098  0.48164977     0.76500
O465        O  0.85338186  0.57896165  0.51688710    -0.72600
O466        O  0.85779396  0.48634801  0.56609600    -0.72800
O467        O  0.85477487  0.50782193  0.49407155    -0.72700
O468        O  0.85647574  0.55742132  0.58875826    -0.72700
O469        O  0.79785800  0.57289220  0.58151252    -0.72600
O470        O  0.79751305  0.48978051  0.50524694    -0.72700
O471        O  0.79998225  0.49438315  0.58480743    -0.72600
O472        O  0.79511411  0.56809170  0.50182355    -0.72800
V473        V  0.85468590  0.53263085  0.54145736     1.35200
V474        V  0.79714206  0.53126510  0.54339545     1.35200
C475        C  0.82554027  0.58653469  0.49591499     0.76700
C476        C  0.83164072  0.47736454  0.58863221     0.76700
C477        C  0.82810122  0.48564700  0.48598206     0.76600
C478        C  0.82939356  0.57847946  0.59866930     0.76500
C479        C  0.10308780  0.40992967  0.66483632     0.85700
C480        C  0.07738930  0.38724881  0.63632088    -0.54600
C481        C  0.05546679  0.40974235  0.61384930     0.08600
C482        C  0.06056313  0.45182152  0.62275191     0.19600
C483        C  0.12557260  0.43843148  0.63890406    -0.55300
C484        C  0.10242512  0.46091591  0.61718019     0.08700
C485        C  0.07545340  0.43642878  0.68806937    -0.54800
C486        C  0.05208417  0.45711973  0.66534955     0.09300
H487        H  0.07690829  0.35654107  0.63426252     0.13800
H488        H  0.04217806  0.46971655  0.60485557    -0.00500
H489        H  0.15603485  0.44163748  0.63878226     0.14100
H490        H  0.07410835  0.43818129  0.71914737     0.13900
C491        C  0.09161436  0.66499336  0.40396715     0.85700
C492        C  0.06086647  0.64043626  0.38250200    -0.54600
C493        C  0.04109141  0.61716737  0.40620811     0.08600
C494        C  0.05298108  0.62142995  0.44794631     0.19600
C495        C  0.06775787  0.68685297  0.43504289    -0.55300
C496        C  0.04762905  0.66326091  0.45819699     0.08700
C497        C  0.11603493  0.63599899  0.42716980    -0.54800
C498        C  0.09512204  0.61283712  0.45006323     0.09300
H499        H  0.05427299  0.64238741  0.35218877     0.13800
H500        H  0.03654775  0.60269238  0.46674226    -0.00500
H501        H  0.06584810  0.71743424  0.43768367     0.14100
H502        H  0.14659573  0.63404355  0.42517712     0.13900
C503        C  0.09895195  0.66755215  0.66203435     0.85700
C504        C  0.06793621  0.68829643  0.63761200    -0.54600
C505        C  0.04615286  0.66405172  0.61658291     0.08600
C506        C  0.05746049  0.62272950  0.62138589     0.19600
C507        C  0.07536480  0.63850234  0.68625081    -0.55300
C508        C  0.05403097  0.61439595  0.66416721     0.08700
C509        C  0.12155283  0.64292391  0.63240264    -0.54800
C510        C  0.09920981  0.61976871  0.61074200     0.09300
H511        H  0.06208827  0.71840548  0.63792687     0.13800
H512        H  0.03985784  0.60362631  0.60368819    -0.00500
H513        H  0.07550194  0.63742512  0.71736722     0.14100
H514        H  0.15196388  0.64449025  0.62858836     0.13900
C515        C  0.09631079  0.40662281  0.40469861     0.85700
C516        C  0.06745192  0.38400898  0.43001591    -0.54600
C517        C  0.04613899  0.40667356  0.45372239     0.08600
C518        C  0.05547276  0.44857305  0.44953310     0.19600
C519        C  0.07011098  0.43595240  0.38325690    -0.55300
C520        C  0.04924211  0.45820793  0.40752434     0.08700
C521        C  0.11951952  0.43165132  0.43346931    -0.54800
C522        C  0.09762008  0.45313715  0.45732998     0.09300
H523        H  0.06299558  0.35368881  0.42797414     0.13800
H524        H  0.03808101  0.46654242  0.46868989    -0.00500
H525        H  0.06698585  0.43901117  0.35259815     0.14100
H526        H  0.15017998  0.43215132  0.43462265     0.13900
O527        O  0.08189979  0.48941272  0.51060720    -0.72600
O528        O  0.08171207  0.58391894  0.55767209    -0.72800
O529        O  0.08024101  0.55971261  0.48626577    -0.72700
O530        O  0.08365544  0.51347791  0.58183762    -0.72700
O531        O  0.14159296  0.49716059  0.57073049    -0.72600
O532        O  0.13812596  0.57771096  0.49394849    -0.72700
O533        O  0.14026320  0.57569593  0.57340715    -0.72600
O534        O  0.13916779  0.49909793  0.49138861    -0.72800
V535        V  0.08275082  0.53666270  0.53405705     1.35200
V536        V  0.14029411  0.53744327  0.53234244     1.35200
C537        C  0.10829758  0.48059362  0.48815515     0.76700
C538        C  0.10901954  0.59321521  0.57872846     0.76700
C539        C  0.10654058  0.58161028  0.47659811     0.76600
C540        C  0.11117550  0.49232951  0.58987849     0.76500
C541        C  0.19553779  0.25958834  0.26113344     0.85700
C542        C  0.22201016  0.28436035  0.23740329    -0.54600
C543        C  0.24384141  0.30892185  0.25815797     0.08600
C544        C  0.23767305  0.30592863  0.30223208     0.19600
C545        C  0.22209362  0.23969608  0.28952014    -0.55300
C546        C  0.24442167  0.26330551  0.31063577     0.08700
C547        C  0.17309030  0.28675563  0.28681849    -0.54800
C548        C  0.19443674  0.31138018  0.30782295     0.09300
H549        H  0.22410567  0.28198032  0.20636365     0.13800
H550        H  0.25548534  0.32552482  0.31953348    -0.00500
H551        H  0.22444758  0.20951822  0.29364634     0.14100
H552        H  0.14245601  0.28613014  0.28899410     0.13900
C553        C  0.68771389  0.30852537  0.26077218     0.85700
C554        C  0.71200559  0.33256156  0.28801938    -0.54600
C555        C  0.73677484  0.31277928  0.31066784     0.08600
C556        C  0.73279888  0.26899589  0.30486912     0.19600
C557        C  0.71563077  0.28306140  0.23882944    -0.55300
C558        C  0.73902921  0.26220078  0.26148228     0.08700
C559        C  0.66698417  0.28150427  0.28782142    -0.54800
C560        C  0.69011087  0.26070048  0.31061901     0.09300
H561        H  0.70914275  0.36316162  0.28909743     0.13800
H562        H  0.75161778  0.25121867  0.32262040    -0.00500
H563        H  0.71586737  0.28063275  0.20769973     0.14100
H564        H  0.63667169  0.27837675  0.28999393     0.13900
C565        C  0.24588844  0.75291230  0.25728449     0.85700
C566        C  0.21930452  0.73068848  0.28379452    -0.54600
C567        C  0.19587300  0.75236116  0.30641094     0.08600
C568        C  0.20267378  0.79551449  0.30139020     0.19600
C569        C  0.21942695  0.77945735  0.23529626    -0.55300
C570        C  0.19729208  0.80205788  0.25799155     0.08700
C571        C  0.26777733  0.77861828  0.28497205    -0.54800
C572        C  0.24570707  0.80098553  0.30799850     0.09300
H573        H  0.21868439  0.70024954  0.28557303     0.13800
H574        H  0.18458937  0.81417978  0.31945775    -0.00500
H575        H  0.21877241  0.78087502  0.20414890     0.14100
H576        H  0.29846422  0.77899997  0.28639577     0.13900
C577        C  0.18782124  0.25079235  0.81072506     0.85700
C578        C  0.21644490  0.22968351  0.78494026    -0.54600
C579        C  0.23781346  0.25273897  0.76246607     0.08600
C580        C  0.22889735  0.29530665  0.76745726     0.19600
C581        C  0.21261184  0.27896012  0.83313668    -0.55300
C582        C  0.23370148  0.30230428  0.81077421     0.08700
C583        C  0.16515532  0.27441211  0.78214053    -0.54800
C584        C  0.18571281  0.29903634  0.76012852     0.09300
H585        H  0.22129702  0.19944911  0.78438430     0.13800
H586        H  0.24734142  0.31403108  0.75042386    -0.00500
H587        H  0.21467544  0.27946766  0.86423850     0.14100
H588        H  0.13482871  0.27091513  0.77954385     0.13900
C589        C  0.74261136  0.24826367  0.81050486     0.85700
C590        C  0.71540144  0.27568950  0.83078348    -0.54600
C591        C  0.69730644  0.30001708  0.80701452     0.08600
C592        C  0.70796109  0.29503703  0.76430355     0.19600
C593        C  0.71810594  0.22845685  0.77996243    -0.55300
C594        C  0.69992471  0.25273071  0.75602613     0.08700
C595        C  0.76929685  0.27328415  0.78694880    -0.54800
C596        C  0.75185280  0.29846297  0.76302906     0.09300
H597        H  0.71049551  0.27561319  0.86159605     0.13800
H598        H  0.69236077  0.31480059  0.74547863    -0.00500
H599        H  0.71410534  0.19819355  0.77702266     0.14100
H600        H  0.79980527  0.27076355  0.78912231     0.13900
C601        C  0.73847265  0.80253997  0.25869938     0.85700
C602        C  0.71345596  0.77438141  0.23644058    -0.54600
C603        C  0.69188205  0.75157432  0.25898281     0.08600
C604        C  0.69655850  0.75962369  0.30275745     0.19600
C605        C  0.71030362  0.82454349  0.28372447    -0.55300
C606        C  0.68875244  0.80271442  0.30710360     0.08700
C607        C  0.76070858  0.77705229  0.28555507    -0.54800
C608        C  0.73987466  0.75535050  0.31000158     0.09300
H609        H  0.71212000  0.77141815  0.20556929     0.13800
H610        H  0.67828510  0.74219675  0.32140942    -0.00500
H611        H  0.70725591  0.85514708  0.28290754     0.14100
H612        H  0.79131823  0.77558881  0.28386439     0.13900
C613        C  0.19422414  0.80785480  0.81419407     0.85700
C614        C  0.17161839  0.78507135  0.78454215    -0.54600
C615        C  0.19305401  0.76505489  0.75897018     0.08600
C616        C  0.23616400  0.76891504  0.76580920     0.19600
C617        C  0.21965996  0.77801371  0.83342448    -0.55300
C618        C  0.24156915  0.75760031  0.80831565     0.08700
C619        C  0.22164429  0.83189559  0.79093574    -0.54800
C620        C  0.24378671  0.81226217  0.76570368     0.09300
H621        H  0.14089914  0.78445392  0.78408687     0.13800
H622        H  0.25393952  0.75245602  0.74531256    -0.00500
H623        H  0.22173026  0.77337632  0.86400658     0.14100
H624        H  0.22296125  0.86254183  0.79393354     0.13900
C625        C  0.09269094  0.16244705  0.16954004     0.85700
C626        C  0.06157281  0.18324500  0.14539023    -0.54600
C627        C  0.03959006  0.15901210  0.12495866     0.08600
C628        C  0.05059709  0.11769931  0.12985530     0.19600
C629        C  0.06931237  0.13387505  0.19432034    -0.55300
C630        C  0.04809479  0.10952713  0.17269443     0.08700
C631        C  0.11467520  0.13790732  0.13926610    -0.54800
C632        C  0.09196125  0.11444440  0.11852904     0.09300
H633        H  0.05571630  0.21326477  0.14462892     0.13800
H634        H  0.03256013  0.09877270  0.11246569    -0.00500
H635        H  0.06914445  0.13343880  0.22544370     0.14100
H636        H  0.14486919  0.13990496  0.13411230     0.13900
C637        C  0.08691708  0.15954467  0.91086873     0.85700
C638        C  0.06222460  0.18152596  0.94159742    -0.54600
C639        C  0.04115043  0.15804372  0.96389111     0.08600
C640        C  0.04594590  0.11646686  0.95313106     0.19600
C641        C  0.11007589  0.13099769  0.93569736    -0.55300
C642        C  0.08797554  0.10783535  0.95714146     0.08700
C643        C  0.05747975  0.13517541  0.88791934    -0.54800
C644        C  0.03592428  0.11266754  0.91071001     0.09300
H645        H  0.06177814  0.21172678  0.94693243     0.13800
H646        H  0.02841679  0.09794100  0.97119369    -0.00500
H647        H  0.14071708  0.12924336  0.93577400     0.14100
H648        H  0.05419141  0.13601459  0.85694884     0.13900
C649        C  0.83527122  0.15433576  0.17691055     0.85700
C650        C  0.85857550  0.17732943  0.14667753    -0.54600
C651        C  0.88137688  0.15509536  0.12410792     0.08600
C652        C  0.87907432  0.11334430  0.13429246     0.19600
C653        C  0.81417217  0.12350401  0.15201650    -0.55300
C654        C  0.83782697  0.10207387  0.13010360     0.08700
C655        C  0.86568588  0.13119437  0.19981152    -0.54800
C656        C  0.88912063  0.11009716  0.17664008     0.09300
H657        H  0.85655952  0.20780186  0.14328371     0.13800
H658        H  0.89765650  0.09573810  0.11599443    -0.00500
H659        H  0.78414086  0.11833879  0.15077115     0.14100
H660        H  0.86852126  0.13209123  0.23082814     0.13900
C661        C  0.10044963  0.90454786  0.17046043     0.85700
C662        C  0.12087307  0.93454381  0.14446356    -0.54600
C663        C  0.09650739  0.95541573  0.12303234     0.08600
C664        C  0.05542492  0.94402428  0.12855261     0.19600
C665        C  0.07083892  0.92842690  0.19386453    -0.55300
C666        C  0.04689323  0.94884537  0.17125664     0.08700
C667        C  0.07648216  0.88044859  0.14117763    -0.54800
C668        C  0.05308277  0.90186898  0.11884045     0.09300
H669        H  0.15089968  0.93960940  0.14251371     0.13800
H670        H  0.03618064  0.96094253  0.11062882    -0.00500
H671        H  0.06928498  0.92900115  0.22498920     0.14100
H672        H  0.07867935  0.84989287  0.13806003     0.13900
C673        C  0.84451324  0.89929760  0.17228204     0.85700
C674        C  0.86888250  0.92908665  0.19538623    -0.54600
C675        C  0.89019903  0.95143227  0.17226742     0.08600
C676        C  0.88606041  0.94146415  0.12977327     0.19600
C677        C  0.82184970  0.92411113  0.14356113    -0.55300
C678        C  0.84415847  0.94518852  0.12052653     0.08700
C679        C  0.87432919  0.87687281  0.14791972    -0.54800
C680        C  0.89603734  0.89953259  0.12557723     0.09300
H681        H  0.86935926  0.93354845  0.22609942     0.13800
H682        H  0.90369650  0.95971054  0.11143562    -0.00500
H683        H  0.79121770  0.92512937  0.14198778     0.14100
H684        H  0.87849805  0.84644569  0.14919528     0.13900
O685        O  0.00575413  0.07221035  0.21535032    -0.72600
O686        O  0.93340171  0.98839150  0.21402581    -0.72800
O687        O  0.01121509  0.99353469  0.21351694    -0.72700
O688        O  0.92763844  0.06646466  0.21654575    -0.72700
O689        O  0.94328603  0.07711398  0.15764384    -0.72600
O690        O  0.99437397  0.98485762  0.15439665    -0.72700
O691        O  0.92309893  0.00546579  0.15539857    -0.72600
O692        O  0.01466567  0.05580683  0.15614918    -0.72800
V693        V  0.96954891  0.03014633  0.21532506     1.35200
V694        V  0.96885352  0.03090145  0.15681129     1.35200
C695        C  0.02293948  0.07750321  0.18357216     0.76700
C696        C  0.91554737  0.98351302  0.18247340     0.76700
C697        C  0.01583413  0.97588374  0.18163784     0.76600
C698        C  0.92188490  0.08469201  0.18560713     0.76500
C699        C  0.09444984  0.90580518  0.90800626     0.85700
C700        C  0.11618662  0.93126248  0.93748281    -0.54600
C701        C  0.09280077  0.95128597  0.96115499     0.08600
C702        C  0.05111189  0.94531095  0.95209777     0.19600
C703        C  0.06676886  0.88148425  0.93271892    -0.55300
C704        C  0.04383088  0.90284577  0.95578549     0.08700
C705        C  0.06798887  0.93419423  0.88610204    -0.54800
C706        C  0.04579961  0.95512288  0.90998473     0.09300
H707        H  0.14676341  0.93260658  0.93969357     0.13800
H708        H  0.03259803  0.96264019  0.97081173    -0.00500
H709        H  0.06566461  0.85075365  0.93185538     0.14100
H710        H  0.06655860  0.93868402  0.85552151     0.13900
O711        O  0.13460838  0.99268527  0.07718573    -0.72600
O712        O  0.13031203  0.07357979  0.00157584    -0.72800
O713        O  0.13256364  0.07085848  0.08074393    -0.72700
O714        O  0.13262083  0.99581708  0.99799688    -0.72700
O715        O  0.07481923  0.98535273  0.01530162    -0.72600
O716        O  0.07343622  0.07777606  0.06646253    -0.72700
O717        O  0.07206786  0.05626714  0.99438267    -0.72600
O718        O  0.07588877  0.00671410  0.08758074    -0.72800
V719        V  0.13282171  0.03321824  0.03941685     1.35200
V720        V  0.07503625  0.03156165  0.04094497     1.35200
C721        C  0.10409549  0.98670440  0.09574782     0.76700
C722        C  0.09865268  0.07757998  0.98450089     0.76700
C723        C  0.10112505  0.08763059  0.08675666     0.76600
C724        C  0.10190214  0.97756420  0.99324826     0.76500
C725        C  0.83264188  0.15557986  0.91672933     0.85700
C726        C  0.85663753  0.12677310  0.89229539    -0.54600
C727        C  0.87853995  0.10359148  0.91408420     0.08600
C728        C  0.87547604  0.11247529  0.95685791     0.19600
C729        C  0.81070117  0.13085562  0.94642359    -0.55300
C730        C  0.83399100  0.10850556  0.96777148     0.08700
C731        C  0.86271312  0.17745137  0.94144671    -0.54800
C732        C  0.88506397  0.15414550  0.96209327     0.09300
H733        H  0.85586743  0.12484445  0.86118579     0.13800
H734        H  0.89409775  0.09422236  0.97413005    -0.00500
H735        H  0.78029227  0.13177375  0.95048446     0.14100
H736        H  0.86728384  0.20766011  0.94291399     0.13900
O737        O  0.91633941  0.13744819  0.07017314    -0.72600
O738        O  0.00809807  0.13933915  0.01815574    -0.72800
O739        O  0.98742968  0.13932323  0.09057023    -0.72700
O740        O  0.93710839  0.13705611  0.99779237    -0.72700
O741        O  0.91977167  0.19534287  0.00706758    -0.72600
O742        O  0.00170071  0.19815813  0.08130358    -0.72700
O743        O  0.99716734  0.19751471  0.00235500    -0.72600
O744        O  0.92391713  0.19630671  0.08625240    -0.72800
V745        V  0.96222048  0.13922975  0.04420156     1.35200
V746        V  0.96061092  0.19715403  0.04428134     1.35200
C747        C  0.90715384  0.16481856  0.09168218     0.76700
C748        C  0.01548641  0.16680417  0.99667028     0.76700
C749        C  0.00774569  0.16726544  0.09895581     0.76600
C750        C  0.91569079  0.16396634  0.98909260     0.76500
C751        C  0.83723968  0.89717847  0.91589936     0.85700
C752        C  0.86528331  0.92161173  0.89147891    -0.54600
C753        C  0.88876781  0.94377093  0.91341616     0.08600
C754        C  0.88123495  0.94000254  0.95638448     0.19600
C755        C  0.86312510  0.87508534  0.94461415    -0.55300
C756        C  0.88600019  0.89821143  0.96613857     0.08700
C757        C  0.81621592  0.92740989  0.94163664    -0.54800
C758        C  0.83982796  0.94977909  0.96227125     0.09300
H759        H  0.86620501  0.92128439  0.86033454     0.13800
H760        H  0.89956606  0.95843697  0.97411537    -0.00500
H761        H  0.86279527  0.84452264  0.94774017     0.14100
H762        H  0.78622780  0.93273521  0.94325034     0.13900
O763        O  0.01120583  0.86030309  0.00179427    -0.72600
O764        O  0.93170394  0.85861495  0.08000135    -0.72800
O765        O  0.93290578  0.85857479  0.00071131    -0.72700
O766        O  0.00978557  0.85972497  0.08168418    -0.72700
O767        O  0.01771385  0.91799488  0.06498752    -0.72600
O768        O  0.92288999  0.91663554  0.01852616    -0.72700
O769        O  0.94790742  0.91699489  0.08974571    -0.72600
O770        O  0.99254847  0.91805588  0.99384863    -0.72800
V771        V  0.97147782  0.85879747  0.04101931     1.35200
V772        V  0.97031895  0.91652693  0.04177432     1.35200
C773        C  0.01422188  0.89160833  0.98385769     0.76700
C774        C  0.92708688  0.88970898  0.09853913     0.76700
C775        C  0.91406629  0.88924320  0.99691499     0.76600
C776        C  0.02703021  0.89117062  0.08660779     0.76500
O777        O  0.79569416  0.06325031  0.00517159    -0.72600
O778        O  0.80132313  0.98809475  0.08616686    -0.72800
O779        O  0.79781836  0.06587309  0.08460626    -0.72700
O780        O  0.79942092  0.98531005  0.00743651    -0.72700
O781        O  0.85678263  0.00383548  0.99663749    -0.72600
O782        O  0.85691442  0.05168188  0.09185271    -0.72700
O783        O  0.85955696  0.98143336  0.06794897    -0.72600
O784        O  0.85374352  0.07481005  0.02075209    -0.72800
V785        V  0.79816231  0.02565410  0.04582419     1.35200
V786        V  0.85584081  0.02799035  0.04425302     1.35200
C787        C  0.82581399  0.08229003  0.99985796     0.76700
C788        C  0.83321614  0.97160479  0.08982559     0.76700
C789        C  0.82905892  0.07138230  0.10210234     0.76600
C790        C  0.83024656  0.98146832  0.98876249     0.76500
O791        O  0.94026849  0.98134624  0.92939817    -0.72600
O792        O  0.98401206  0.07685391  0.92855732    -0.72800
O793        O  0.91447468  0.05107737  0.92983430    -0.72700
O794        O  0.00965236  0.00698954  0.92835032    -0.72700
O795        O  0.99964270  0.98909322  0.86959043    -0.72600
O796        O  0.92240490  0.06835973  0.87100409    -0.72700
O797        O  0.00050586  0.06728833  0.86944657    -0.72600
O798        O  0.92153138  0.98969427  0.87100687    -0.72800
V799        V  0.96206365  0.02909781  0.92818211     1.35200
V800        V  0.96097654  0.02859163  0.86971633     1.35200
C801        C  0.91858217  0.97161810  0.90249555     0.76700
C802        C  0.00492858  0.08569304  0.90088421     0.76700
C803        C  0.90499501  0.07250636  0.90289822     0.76600
C804        C  0.01828788  0.98551236  0.90075516     0.76500
C805        C  0.69190129  0.81106070  0.76099782     0.85700
C806        C  0.71631427  0.83251072  0.79013458    -0.54600
C807        C  0.73903358  0.81005809  0.81211910     0.08600
C808        C  0.73538145  0.76719570  0.80272828     0.19600
C809        C  0.71989305  0.78678575  0.73765763    -0.55300
C810        C  0.74294572  0.76430282  0.75928359     0.08700
C811        C  0.67050805  0.78208429  0.78526099    -0.54800
C812        C  0.69274930  0.75844858  0.80624832     0.09300
H813        H  0.71573174  0.86318613  0.79308895     0.13800
H814        H  0.75393691  0.74868272  0.82014832    -0.00500
H815        H  0.72134326  0.78729529  0.70650754     0.14100
H816        H  0.64026431  0.77849379  0.78554938     0.13900
C817        C  0.77168905  0.87290330  0.89417521    -0.27100
C818        C  0.81152546  0.87097360  0.89141439    -0.15200
C819        C  0.82699189  0.84422127  0.86505988     0.35400
C820        C  0.80305128  0.82249831  0.84095641    -0.26600
C821        C  0.76367356  0.82713418  0.84226345    -0.15800
C822        C  0.74794088  0.85199357  0.86975364     0.36500
N823        N  0.70755903  0.85657029  0.87219700    -0.90100
H824        H  0.75784840  0.89053736  0.91509216     0.17600
H825        H  0.81538279  0.80332754  0.81990551     0.17600
N826        N  0.86710751  0.83956227  0.86207456    -0.89100
H827        H  0.70022538  0.87656152  0.89328366     0.35000
H828        H  0.69610664  0.83073830  0.88075810     0.40100
H829        H  0.87504403  0.84526018  0.83379850     0.39700
H830        H  0.87355605  0.81121310  0.86762370     0.34600
C831        C  0.16900183  0.83135845  0.87959650    -0.27100
C832        C  0.16892318  0.83303371  0.83924063    -0.15200
C833        C  0.14537196  0.86016380  0.82150637     0.35400
C834        C  0.12208266  0.88365222  0.84362778    -0.26600
C835        C  0.12117544  0.88129236  0.88387172    -0.15800
C836        C  0.14571892  0.85518255  0.90180177     0.36500
N837        N  0.14724105  0.85280959  0.94283741    -0.90100
H838        H  0.18706723  0.81201095  0.89475792     0.17600
H839        H  0.10495635  0.90344377  0.82810913     0.17600
N840        N  0.14503199  0.86416166  0.78056007    -0.89100
H841        H  0.17498208  0.85837194  0.95154306     0.35000
H842        H  0.14062118  0.82506156  0.95061090     0.40100
H843        H  0.15266065  0.89198659  0.77407184     0.39700
H844        H  0.11741578  0.85971907  0.77084026     0.34600
C845        C  0.76865300  0.82507979  0.19622990    -0.27100
C846        C  0.76540923  0.82827471  0.23637919    -0.15200
C847        C  0.78983293  0.85440681  0.25559229     0.35400
C848        C  0.81548960  0.87584996  0.23467822    -0.26600
C849        C  0.81803897  0.87327048  0.19448969    -0.15800
C850        C  0.79412551  0.84674024  0.17530146     0.36500
N851        N  0.79450357  0.84046038  0.13447958    -0.90100
H852        H  0.75184320  0.80548788  0.17980024     0.17600
H853        H  0.83308140  0.89475559  0.25110768     0.17600
N854        N  0.78977863  0.86051550  0.29642265    -0.89100
H855        H  0.82103842  0.83096645  0.12545126     0.35000
H856        H  0.78683831  0.86484577  0.11989424     0.40100
H857        H  0.79603256  0.83551308  0.31091192     0.39700
H858        H  0.76393359  0.87144659  0.30538321     0.34600
C859        C  0.75986292  0.18400974  0.84058564    -0.27100
C860        C  0.76373061  0.22373005  0.83940823    -0.15200
C861        C  0.78749111  0.24136311  0.86680055     0.35400
C862        C  0.80823411  0.21955249  0.89254340    -0.26600
C863        C  0.80663511  0.17969406  0.89184818    -0.15800
C864        C  0.78077640  0.16215032  0.86647137     0.36500
N865        N  0.77589341  0.12184066  0.86658655    -0.90100
H866        H  0.74080264  0.16903471  0.82178337     0.17600
H867        H  0.82538551  0.23498700  0.91272767     0.17600
N868        N  0.79095953  0.28183957  0.86845846    -0.89100
H869        H  0.78210095  0.11138796  0.83912043     0.35000
H870        H  0.74746802  0.11611350  0.87238019     0.40100
H871        H  0.81937109  0.28880627  0.86432929     0.39700
H872        H  0.78303326  0.29105391  0.89594015     0.34600
C873        C  0.16191033  0.18739161  0.83513039    -0.27100
C874        C  0.16184349  0.22729023  0.83696263    -0.15200
C875        C  0.13548644  0.24480052  0.86254562     0.35400
C876        C  0.11186157  0.22265141  0.88537248    -0.26600
C877        C  0.11257225  0.18273824  0.88420635    -0.15800
C878        C  0.13771780  0.16511107  0.85736963     0.36500
N879        N  0.14014471  0.12472219  0.85116811    -0.90100
H880        H  0.17999087  0.17214633  0.81557538     0.17600
H881        H  0.09249000  0.23792571  0.90360453     0.17600
N882        N  0.13113889  0.28514336  0.86626909    -0.89100
H883        H  0.13255199  0.11918961  0.82268172     0.35000
H884        H  0.12149878  0.10918340  0.86780872     0.40100
H885        H  0.12399373  0.29698927  0.83994096     0.39700
H886        H  0.15574230  0.29742180  0.87698963     0.34600
C887        C  0.13324035  0.82723807  0.24143341    -0.27100
C888        C  0.17256697  0.83134773  0.24085974    -0.15200
C889        C  0.18855852  0.86098664  0.21981466     0.35400
C890        C  0.16539465  0.88503512  0.19822321    -0.26600
C891        C  0.12578959  0.88000991  0.19648071    -0.15800
C892        C  0.10982414  0.85118957  0.21957945     0.36500
N893        N  0.06974544  0.84560796  0.22035371    -0.90100
H894        H  0.12072488  0.80440405  0.25765965     0.17600
H895        H  0.17946450  0.90719216  0.18287076     0.17600
N896        N  0.22869266  0.86648376  0.22001940    -0.89100
H897        H  0.06416446  0.81784767  0.21131992     0.35000
H898        H  0.06062959  0.84851096  0.24880039     0.40100
H899        H  0.23416779  0.89390280  0.23018517     0.39700
H900        H  0.23840016  0.86450746  0.19171542     0.34600
C901        C  0.77037405  0.17672890  0.20307557    -0.27100
C902        C  0.81018509  0.18021752  0.20250004    -0.15200
C903        C  0.82638043  0.20952468  0.22533689     0.35400
C904        C  0.80310422  0.23508002  0.24609674    -0.26600
C905        C  0.76364203  0.23218497  0.24454854    -0.15800
C906        C  0.74738826  0.20227030  0.22350071     0.36500
N907        N  0.70712272  0.19790573  0.22248923    -0.90100
H908        H  0.75583749  0.15479062  0.18749033     0.17600
H909        H  0.81590056  0.25805933  0.26231454     0.17600
N910        N  0.86657596  0.21393071  0.22695295    -0.89100
H911        H  0.70060339  0.17084521  0.23249326     0.35000
H912        H  0.69835054  0.19945718  0.19389806     0.40100
H913        H  0.87492446  0.21192469  0.25564184     0.39700
H914        H  0.87321716  0.24113660  0.21743627     0.34600
C915        C  0.17210583  0.19476328  0.23766609    -0.27100
C916        C  0.16999570  0.23460739  0.23598635    -0.15200
C917        C  0.14339649  0.25057543  0.21010008     0.35400
C918        C  0.11914815  0.22705124  0.18933940    -0.26600
C919        C  0.11964045  0.18731665  0.19300682    -0.15800
C920        C  0.14766131  0.17128787  0.21715426     0.36500
N921        N  0.15289573  0.13121272  0.22171729    -0.90100
H922        H  0.19280915  0.18033227  0.25464437     0.17600
H923        H  0.10062440  0.24115570  0.16965472     0.17600
N924        N  0.14008582  0.29053619  0.20326960    -0.89100
H925        H  0.15844473  0.11815327  0.19536620     0.35000
H926        H  0.12931945  0.11913767  0.23463935     0.40100
H927        H  0.16523034  0.30121422  0.19230142     0.39700
H928        H  0.13248767  0.30507944  0.22829812     0.34600
C929        C  0.17255834  0.33286279  0.37242529    -0.27100
C930        C  0.17519792  0.33953903  0.33304492    -0.15200
C931        C  0.15237344  0.36775868  0.31670541     0.35400
C932        C  0.12729074  0.38873294  0.33997318    -0.26600
C933        C  0.12305134  0.38165676  0.37966884    -0.15800
C934        C  0.14678483  0.35293444  0.39573727     0.36500
N935        N  0.14510860  0.34233293  0.43533029    -0.90100
H936        H  0.18912243  0.31020679  0.38484939     0.17600
H937        H  0.11158614  0.41075378  0.32610650     0.17600
N938        N  0.15398550  0.37420378  0.27601055    -0.89100
H939        H  0.11904898  0.32994296  0.44117703     0.35000
H940        H  0.14922159  0.36599325  0.45297173     0.40100
H941        H  0.18094344  0.38439263  0.26967488     0.39700
H942        H  0.13485016  0.39530957  0.26799288     0.34600
C943        C  0.17384359  0.70114243  0.73569605    -0.27100
C944        C  0.17448108  0.74031389  0.72999253    -0.15200
C945        C  0.15232375  0.75580185  0.70034718     0.35400
C946        C  0.12862638  0.73229837  0.67848021    -0.26600
C947        C  0.12562143  0.69307958  0.68572840    -0.15800
C948        C  0.15023821  0.67744214  0.71356508     0.36500
N949        N  0.15124972  0.63739931  0.71973260    -0.90100
H950        H  0.19081869  0.68896528  0.75834267     0.17600
H951        H  0.11322320  0.74538861  0.65542308     0.17600
N952        N  0.15359294  0.79538315  0.69159042    -0.89100
H953        H  0.17888966  0.62796371  0.71491429     0.35000
H954        H  0.14456191  0.63247902  0.74850225     0.40100
H955        H  0.18160080  0.80264314  0.68573166     0.39700
H956        H  0.14459311  0.81094077  0.71558712     0.34600
C957        C  0.15060693  0.69932611  0.31764652    -0.27100
C958        C  0.16617769  0.73371109  0.33084040    -0.15200
C959        C  0.15592619  0.74664477  0.36782827     0.35400
C960        C  0.13089841  0.72502326  0.39053766    -0.26600
C961        C  0.11633933  0.68974205  0.37762077    -0.15800
C962        C  0.12858112  0.67616884  0.34123262     0.36500
N963        N  0.12005272  0.63822975  0.32855705    -0.90100
H964        H  0.15713663  0.68918840  0.28897924     0.17600
H965        H  0.12447152  0.73531973  0.41914591     0.17600
N966        N  0.17193558  0.78076424  0.38323191    -0.89100
H967        H  0.13072451  0.63291680  0.30104525     0.35000
H968        H  0.13401773  0.61958536  0.34693410     0.40100
H969        H  0.14977388  0.79915663  0.39042087     0.39700
H970        H  0.18640057  0.77407222  0.40844618     0.34600
C971        C  0.16355714  0.37233613  0.68115637    -0.27100
C972        C  0.12597734  0.38266731  0.69018766    -0.15200
C973        C  0.10822566  0.36325193  0.72061964     0.35400
C974        C  0.12894511  0.33854283  0.74368030    -0.26600
C975        C  0.16640978  0.32796789  0.73496418    -0.15800
C976        C  0.18336374  0.34466077  0.70242176     0.36500
N977        N  0.21983455  0.33255714  0.68943340    -0.90100
H978        H  0.17728889  0.38408627  0.65624920     0.17600
H979        H  0.11459986  0.32725226  0.76843797     0.17600
N980        N  0.06854726  0.36747280  0.72786258    -0.89100
H981        H  0.23753042  0.35622233  0.68879784     0.35000
H982        H  0.21710070  0.32216397  0.66134580     0.40100
H983        H  0.05590436  0.34082237  0.72521756     0.39700
H984        H  0.06499256  0.37690006  0.75620150     0.34600
C985        C  0.82177754  0.73106502  0.69404584    -0.27100
C986        C  0.81996190  0.69114779  0.69737683    -0.15200
C987        C  0.79609650  0.67633599  0.72623596     0.35400
C988        C  0.77248732  0.70067445  0.74789019    -0.26600
C989        C  0.77220319  0.73979123  0.74136507    -0.15800
C990        C  0.79815468  0.75523975  0.71537463     0.36500
N991        N  0.80014708  0.79566098  0.71052994    -0.90100
H992        H  0.84138693  0.74461368  0.67519553     0.17600
H993        H  0.75317292  0.68876076  0.76868019     0.17600
N994        N  0.79536283  0.63645098  0.73332727    -0.89100
H995        H  0.82048780  0.80276860  0.69003949     0.35000
H996        H  0.80903351  0.80755849  0.73659531     0.40100
H997        H  0.76766721  0.62691082  0.72938146     0.39700
H998        H  0.80268448  0.63222952  0.76205723     0.34600
C999        C  0.77062561  0.67304225  0.37552206    -0.27100
C1000       C  0.80730583  0.68482089  0.38662847    -0.15200
C1001       C  0.82058134  0.71964068  0.37188479     0.35400
C1002       C  0.79581685  0.74343859  0.35203929    -0.26600
C1003       C  0.75998159  0.73128282  0.33936171    -0.15800
C1004       C  0.74723040  0.69541343  0.35156097     0.36500
N1005       N  0.71115990  0.68126830  0.33919634    -0.90100
H1006       H  0.76053804  0.64552190  0.38421460     0.17600
H1007       H  0.80590066  0.77132392  0.34458807     0.17600
N1008       N  0.85968778  0.73029881  0.37515056    -0.89100
H1009       H  0.70581955  0.65472734  0.35110436     0.35000
H1010       H  0.71243965  0.67713549  0.30950064     0.40100
H1011       H  0.87556790  0.71046590  0.35947227     0.39700
H1012       H  0.86471189  0.75663704  0.36271046     0.34600
C1013       C  0.80362589  0.34056944  0.39412928    -0.27100
C1014       C  0.81426055  0.37785314  0.38432349    -0.15200
C1015       C  0.79847323  0.39318773  0.35037128     0.35400
C1016       C  0.77629856  0.37028625  0.32600516    -0.26600
C1017       C  0.76487299  0.33344650  0.33615620    -0.15800
C1018       C  0.77873845  0.31882966  0.37103768     0.36500
N1019       N  0.76646831  0.28266018  0.38433172    -0.90100
H1020       H  0.81284902  0.32845328  0.42089307     0.17600
H1021       H  0.76720531  0.38213593  0.29902626     0.17600
N1022       N  0.80445924  0.43226439  0.34063818    -0.89100
H1023       H  0.75342614  0.28654512  0.41103415     0.35000
H1024       H  0.79036294  0.26566325  0.38824591     0.40100
H1025       H  0.79087147  0.44896465  0.36143711     0.39700
H1026       H  0.79177213  0.43879053  0.31443498     0.34600
C1027       C  0.78657439  0.36284795  0.68168395    -0.27100
C1028       C  0.82033466  0.37832108  0.69696237    -0.15200
C1029       C  0.83226684  0.36469343  0.73310510     0.35400
C1030       C  0.80890245  0.34031137  0.75434774    -0.26600
C1031       C  0.77444134  0.32629731  0.73969472    -0.15800
C1032       C  0.76381646  0.33741466  0.70245754     0.36500
N1033       N  0.73080899  0.32186023  0.68463039    -0.90100
H1034       H  0.77796763  0.36936822  0.65270956     0.17600
H1035       H  0.81837851  0.33201221  0.78260230     0.17600
N1036       N  0.86870995  0.37423213  0.74813403    -0.89100
H1037       H  0.73906885  0.30857049  0.65900071     0.35000
H1038       H  0.71278740  0.34426843  0.67766701     0.40100
H1039       H  0.88385685  0.34911040  0.75213809     0.39700
H1040       H  0.86491202  0.38716392  0.77500518     0.34600
C1041       C  0.66409838  0.88727584  0.68782874    -0.27100
C1042       C  0.62424555  0.88577257  0.68769997    -0.15200
C1043       C  0.60646542  0.86019623  0.71270498     0.35400
C1044       C  0.62803997  0.83679939  0.73636034    -0.26600
C1045       C  0.66794715  0.83746400  0.73591687    -0.15800
C1046       C  0.68575738  0.86363522  0.71139570     0.36500
N1047       N  0.72617563  0.86622013  0.71008531    -0.90100
H1048       H  0.67949690  0.90638390  0.66979329     0.17600
H1049       H  0.61222252  0.81862114  0.75490175     0.17600
N1050       N  0.56603492  0.85766578  0.71413931    -0.89100
H1051       H  0.73491538  0.86074246  0.68188481     0.35000
H1052       H  0.73386115  0.89399510  0.71723276     0.40100
H1053       H  0.55831261  0.82984046  0.70729332     0.39700
H1054       H  0.55733070  0.86346693  0.74229805     0.34600
C1055       C  0.31641048  0.88483976  0.73405929    -0.27100
C1056       C  0.31568942  0.88167422  0.69364137    -0.15200
C1057       C  0.29222566  0.85247842  0.67749813     0.35400
C1058       C  0.27109111  0.82855772  0.70148687    -0.26600
C1059       C  0.27169814  0.83285907  0.74143068    -0.15800
C1060       C  0.29518757  0.86097224  0.75765663     0.36500
N1061       N  0.29759190  0.86564229  0.79851953    -0.90100
H1062       H  0.33294281  0.90604009  0.74859770     0.17600
H1063       H  0.25277382  0.80740038  0.68861136     0.17600
N1064       N  0.28821672  0.84645162  0.63692693    -0.89100
H1065       H  0.28925633  0.89329647  0.80552289     0.35000
H1066       H  0.32589757  0.86252952  0.80655704     0.40100
H1067       H  0.31407930  0.83876034  0.62480614     0.46900
H1068       H  0.27801180  0.87096674  0.62407833     0.34600
C1069       C  0.30680637  0.83469051  0.39061534    -0.27100
C1070       C  0.30900555  0.87428935  0.38479237    -0.15200
C1071       C  0.28602514  0.88970223  0.35536781     0.35400
C1072       C  0.26369021  0.86581517  0.33179644    -0.26600
C1073       C  0.26344874  0.82650058  0.33698643    -0.15800
C1074       C  0.28485940  0.81106039  0.36691689     0.36500
N1075       N  0.28462773  0.77096294  0.37312413    -0.90100
H1076       H  0.32167789  0.82092245  0.41347582     0.17600
H1077       H  0.24754953  0.87793343  0.30848366     0.17600
N1078       N  0.28567264  0.92969274  0.34887346    -0.89100
H1079       H  0.27524243  0.76616239  0.40112564     0.35000
H1080       H  0.31241161  0.76103100  0.37087719     0.40100
H1081       H  0.29419127  0.93434625  0.32055602     0.39700
H1082       H  0.25784267  0.93929569  0.35180006     0.34600
C1083       C  0.62474823  0.82727024  0.32553806    -0.27100
C1084       C  0.66271621  0.82111852  0.33516463    -0.15200
C1085       C  0.67710588  0.83799404  0.36892435     0.35400
C1086       C  0.65425132  0.86221224  0.39105734    -0.26600
C1087       C  0.61683376  0.87122757  0.38009911    -0.15800
C1088       C  0.60151313  0.85118227  0.34820653     0.36500
N1089       N  0.56232063  0.85483793  0.33869425    -0.90100
H1090       H  0.61326067  0.81410874  0.29984854     0.17600
H1091       H  0.66631310  0.87335168  0.41726205     0.17600
N1092       N  0.71511355  0.83112318  0.38132627    -0.89100
H1093       H  0.55012623  0.82788900  0.33960470     0.35000
H1094       H  0.56036419  0.86459630  0.31052663     0.40100
H1095       H  0.73369915  0.84035040  0.36009681     0.39700
H1096       H  0.71869710  0.80190556  0.38449126     0.34600
C1097       C  0.26891416  0.24549066  0.37555313    -0.27100
C1098       C  0.27367641  0.24598212  0.33569252    -0.15200
C1099       C  0.30050335  0.22150124  0.31895089     0.35400
C1100       C  0.32046720  0.19564085  0.34148722    -0.26600
C1101       C  0.31437137  0.19262994  0.38137515    -0.15800
C1102       C  0.28910097  0.21977329  0.39860047     0.36500
N1103       N  0.28281347  0.22226239  0.43922252    -0.90100
H1104       H  0.24799097  0.26393282  0.38874190     0.17600
H1105       H  0.34094843  0.17837987  0.32666576     0.17600
N1106       N  0.30654364  0.22184449  0.27828797    -0.89100
H1107       H  0.30833139  0.22720431  0.45339629     0.35000
H1108       H  0.27064360  0.19733026  0.44902543     0.40100
H1109       H  0.33516290  0.22725942  0.27335378     0.39700
H1110       H  0.30042963  0.19483960  0.26735508     0.34600
C1111       C  0.26538982  0.23842925  0.69825221    -0.27100
C1112       C  0.26826231  0.23667482  0.73822362    -0.15200
C1113       C  0.29692331  0.21457749  0.75489711     0.35400
C1114       C  0.32137794  0.19357280  0.73126007    -0.26600
C1115       C  0.31726536  0.19284481  0.69093418    -0.15800
C1116       C  0.28938476  0.21664056  0.67454978     0.36500
N1117       N  0.28461250  0.21797572  0.63375214    -0.90100
H1118       H  0.24305287  0.25505884  0.68538664     0.17600
H1119       H  0.34300159  0.17761981  0.74544241     0.17600
N1120       N  0.30011628  0.21236074  0.79602095    -0.89100
H1121       H  0.28805802  0.24605530  0.62515256     0.35000
H1122       H  0.25691062  0.20981316  0.62731947     0.40100
H1123       H  0.30750158  0.23916868  0.80637482     0.39700
H1124       H  0.32197941  0.19403900  0.80390137     0.34600
C1125       C  0.63042197  0.22281197  0.39087006    -0.27100
C1126       C  0.62003071  0.18651635  0.37672863    -0.15200
C1127       C  0.63963805  0.17262457  0.34397398     0.35400
C1128       C  0.66532393  0.19611457  0.32434783    -0.26600
C1129       C  0.67289948  0.23309962  0.33722594    -0.15800
C1130       C  0.65557709  0.24621633  0.37099694     0.36500
N1131       N  0.66264404  0.28399126  0.38460249    -0.90100
H1132       H  0.61964921  0.23367810  0.41777249     0.17600
H1133       H  0.67828043  0.18588634  0.29806865     0.17600
N1134       N  0.63361104  0.13473821  0.33032856    -0.89100
H1135       H  0.67333870  0.28235571  0.41251265     0.35000
H1136       H  0.63682237  0.29843210  0.38581623     0.40100
H1137       H  0.62423889  0.13609318  0.30193276     0.39700
H1138       H  0.65962799  0.12058415  0.33043734     0.34600
C1139       C  0.65884224  0.20437019  0.66851710    -0.27100
C1140       C  0.62354604  0.19215171  0.68272204    -0.15200
C1141       C  0.61097770  0.20743940  0.71842839     0.35400
C1142       C  0.63597270  0.22900084  0.74109285    -0.26600
C1143       C  0.67226369  0.23781234  0.72807831    -0.15800
C1144       C  0.68357993  0.22624255  0.69115706     0.36500
N1145       N  0.72047953  0.23599749  0.67714647    -0.90100
H1146       H  0.66767685  0.19666314  0.63979131     0.17600
H1147       H  0.62747414  0.23818547  0.76957989     0.17600
N1148       N  0.57309711  0.20107883  0.73180822    -0.89100
H1149       H  0.72429811  0.22588314  0.64909266     0.35000
H1150       H  0.74046993  0.22221421  0.69415734     0.40100
H1151       H  0.55468903  0.21460001  0.71290335     0.39700
H1152       H  0.56886971  0.21363854  0.75881409     0.34600
C1153       C  0.32685055  0.72331870  0.86299787    -0.27100
C1154       C  0.31936301  0.68431299  0.86793918    -0.15200
C1155       C  0.28915347  0.66854111  0.84555413     0.35400
C1156       C  0.26506305  0.69241866  0.82442390    -0.26600
C1157       C  0.27115797  0.73155412  0.82310351    -0.15800
C1158       C  0.30326626  0.74673919  0.84106897     0.36500
N1159       N  0.31147426  0.78638005  0.83731820    -0.90100
H1160       H  0.35149193  0.73634407  0.87532144     0.17600
H1161       H  0.24083158  0.68037699  0.80975817     0.17600
N1162       N  0.28219056  0.62859049  0.84280348    -0.89100
H1163       H  0.33570947  0.79372025  0.85281539     0.35000
H1164       H  0.31772836  0.79096563  0.80839483     0.40100
H1165       H  0.27424099  0.61789687  0.86935526     0.39700
H1166       H  0.30650072  0.61478798  0.83304197     0.34600
C1167       C  0.65819697  0.69017634  0.88250664    -0.27100
C1168       C  0.62713189  0.67272734  0.86365585    -0.15200
C1169       C  0.62154983  0.68166070  0.82411542     0.35400
C1170       C  0.64613254  0.70640859  0.80587272    -0.26600
C1171       C  0.67517426  0.72530942  0.82549656    -0.15800
C1172       C  0.68229317  0.71600214  0.86389092     0.36500
N1173       N  0.71294629  0.73365420  0.88428578    -0.90100
H1174       H  0.66293357  0.68479263  0.91267546     0.17600
H1175       H  0.64091943  0.71268075  0.77590066     0.17600
N1176       N  0.59012778  0.66934697  0.80147751    -0.89100
H1177       H  0.71467404  0.72330657  0.91227526     0.35000
H1178       H  0.70692453  0.76254739  0.88667896     0.40100
H1179       H  0.56469981  0.67427644  0.81591424     0.39700
H1180       H  0.59424672  0.64136474  0.79235503     0.34600
C1181       C  0.65603100  0.38502961  0.85841779    -0.27100
C1182       C  0.61986796  0.37166906  0.86904927    -0.15200
C1183       C  0.60700681  0.33744434  0.85168859     0.35400
C1184       C  0.63230616  0.31508834  0.82982615    -0.26600
C1185       C  0.66927490  0.32723899  0.82263411    -0.15800
C1186       C  0.68085607  0.36300885  0.83586889     0.36500
N1187       N  0.71838248  0.37616440  0.82752114    -0.90100
H1188       H  0.66536268  0.41279490  0.86760391     0.17600
H1189       H  0.62341472  0.28765548  0.81900799     0.17600
N1190       N  0.56851931  0.32531334  0.85620007    -0.89100
H1191       H  0.72287535  0.40293736  0.83974485     0.35000
H1192       H  0.72041391  0.37937302  0.79776531     0.40100
H1193       H  0.55123169  0.34527564  0.84281726     0.39700
H1194       H  0.56394881  0.29950168  0.84197226     0.34600
C1195       C  0.26838025  0.38406360  0.87150955    -0.27100
C1196       C  0.30784208  0.37764206  0.87275642    -0.15200
C1197       C  0.32287745  0.34911358  0.84816665     0.35400
C1198       C  0.29855536  0.32611081  0.82604189    -0.26600
C1199       C  0.25929793  0.33081282  0.82805515    -0.15800
C1200       C  0.24432102  0.36080714  0.84982705     0.36500
N1201       N  0.20441336  0.36785944  0.84974302    -0.90100
H1202       H  0.25519331  0.40721340  0.88670336     0.17600
H1203       H  0.31039353  0.30387972  0.80813613     0.17600
N1204       N  0.36287387  0.34317098  0.84577500    -0.89100
H1205       H  0.19469165  0.36651659  0.87803205     0.35000
H1206       H  0.19991304  0.39540712  0.83989050     0.40100
H1207       H  0.37107471  0.34670061  0.81720328     0.39700
H1208       H  0.36854969  0.31511740  0.85333804     0.34600
C1209       C  0.31908441  0.34079483  0.18795042    -0.27100
C1210       C  0.31502108  0.38071866  0.18748099    -0.15200
C1211       C  0.28873825  0.39678500  0.21444197     0.35400
C1212       C  0.26798546  0.37327620  0.23936727    -0.26600
C1213       C  0.27153291  0.33374417  0.23795899    -0.15800
C1214       C  0.29770344  0.31769561  0.21217503     0.36500
N1215       N  0.30261071  0.27740127  0.21023713    -0.90100
H1216       H  0.33881406  0.32601248  0.16985682     0.17600
H1217       H  0.24766143  0.38602783  0.25883232     0.17600
N1218       N  0.28152475  0.43670389  0.21712401    -0.89100
H1219       H  0.33103256  0.27132930  0.21569501     0.35000
H1220       H  0.29650619  0.26837726  0.18224080     0.40100
H1221       H  0.27053361  0.44632768  0.19118830     0.39700
H1222       H  0.30636180  0.45116959  0.22359974     0.34600
C1223       C  0.62929198  0.72514568  0.23903334    -0.27100
C1224       C  0.66866091  0.72154037  0.24023568    -0.15200
C1225       C  0.68638482  0.69432376  0.21631292     0.35400
C1226       C  0.66474094  0.67288047  0.19013364    -0.26600
C1227       C  0.62537116  0.67814256  0.18656819    -0.15800
C1228       C  0.60758410  0.70356308  0.21284717     0.36500
N1229       N  0.56732722  0.70793336  0.21274816    -0.90100
H1230       H  0.61546875  0.74615650  0.25710844     0.17600
H1231       H  0.67936390  0.65210670  0.17284320     0.17600
N1232       N  0.72679837  0.68977741  0.21760299    -0.89100
H1233       H  0.55728490  0.70129209  0.24010269     0.35000
H1234       H  0.56108253  0.73639898  0.20758432     0.40100
H1235       H  0.73391409  0.67987514  0.24482593     0.39700
H1236       H  0.73574861  0.66909164  0.19789967     0.34600
C1237       C  0.62421363  0.32814682  0.23023957    -0.27100
C1238       C  0.66371443  0.33245744  0.23342592    -0.15200
C1239       C  0.68146285  0.35922716  0.20951456     0.35400
C1240       C  0.66000048  0.38141750  0.18451057    -0.26600
C1241       C  0.62044893  0.37749601  0.18171589    -0.15800
C1242       C  0.60277902  0.35017637  0.20497562     0.36500
N1243       N  0.56268873  0.34462852  0.20312754    -0.90100
H1244       H  0.60897633  0.30752955  0.24664227     0.17600
H1245       H  0.67534289  0.40186029  0.16801773     0.17600
N1246       N  0.72168584  0.36411285  0.21049754    -0.89100
H1247       H  0.55763283  0.31638461  0.19544600     0.35000
H1248       H  0.55146234  0.34934761  0.23054561     0.40100
H1249       H  0.73228562  0.35884012  0.18291854     0.39700
H1250       H  0.72741324  0.39234875  0.21769997     0.34600
C1251       C  0.32092227  0.72886341  0.18047904    -0.27100
C1252       C  0.32184939  0.68901059  0.18053600    -0.15200
C1253       C  0.29740838  0.66987763  0.20588915     0.35400
C1254       C  0.27306893  0.69025399  0.23010450    -0.26600
C1255       C  0.27213802  0.73018197  0.23040207    -0.15800
C1256       C  0.29662963  0.74932971  0.20495278     0.36500
N1257       N  0.29699094  0.78991593  0.20382891    -0.90100
H1258       H  0.33891015  0.74496196  0.16179812     0.17600
H1259       H  0.25542355  0.67361829  0.24848791     0.17600
N1260       N  0.29721847  0.62926580  0.20729097    -0.89100
H1261       H  0.32439985  0.79912583  0.21007338     0.35000
H1262       H  0.29039207  0.79824126  0.17588861     0.40100
H1263       H  0.30377841  0.62112477  0.23530117     0.39700
H1264       H  0.26989386  0.61985242  0.20097910     0.34600
loop_ 
_geom_bond_atom_site_label_1 
_geom_bond_atom_site_label_2 
_geom_bond_distance 
_geom_bond_site_symmetry_2 
_ccdc_geom_bond_type 
C1            C2   1.575       .  S
C1            C7   1.564       .  S
C1            C5   1.564       .  S
C1         C1252   1.528       .  S
C2            H9   1.081       .  S
C2            C3   1.365       .  D
C3            C4   1.524       .  S
C3          C136   1.489       .  S
C4            C8   1.529       .  S
C4            C6   1.525       .  S
C4           H10   1.103       .  S
C5           H11   1.086       .  S
C5            C6   1.359       .  D
C6          C122   1.487       .  S
C7           H12   1.086       .  S
C7            C8   1.359       .  D
C8           C62   1.492       .  S
C13          C14   1.564       .  S
C13          C19   1.568       .  S
C13          C17   1.570       .  S
C13        C1241   1.532       .  S
C14          H21   1.086       .  S
C14          C15   1.361       .  D
C15          C16   1.527       .  S
C15          C61   1.486       .  S
C16          C20   1.523       .  S
C16          C18   1.525       .  S
C16          H22   1.104       .  S
C17          H23   1.085       .  S
C17          C18   1.366       .  D
C18         C164   1.494       .  S
C19          H24   1.080       .  S
C19          C20   1.355       .  D
C20         C150   1.480       .  S
C25          C26   1.579       .  S
C25          C31   1.555       .  S
C25          C29   1.575       .  S
C25        C1227   1.544       .  S
C26          H33   1.081       .  S
C26          C27   1.367       .  D
C27          C28   1.520       .  S
C27         C151   1.493       .  S
C28          C32   1.523       .  S
C28          C30   1.529       .  S
C28          H34   1.104       .  S
C29          H35   1.085       .  S
C29          C30   1.372       .  D
C30         C137   1.502       .  S
C31          H36   1.086       .  S
C31          C32   1.355       .  D
C32          C60   1.483       .  S
C37          C38   1.580       .  S
C37          C43   1.570       .  S
C37          C41   1.579       .  S
C37        C1210   1.561       .  S
C38          H45   1.084       .  S
C38          C39   1.375       .  D
C39          C40   1.522       .  S
C39         C124   1.507       .  S
C40          C44   1.520       .  S
C40          C42   1.520       .  S
C40          H46   1.099       .  S
C41          H47   1.078       .  S
C41          C42   1.356       .  D
C42         C165   1.496       .  S
C43          H48   1.085       .  S
C43          C44   1.365       .  D
C44          C59   1.492       .  S
O49          V57   1.851       .  S
O49          C59   1.257       .  A
O50          V57   1.860       .  S
O50          C60   1.258       .  A
O51          V57   1.849       .  S
O51          C61   1.254       .  A
O52          V57   1.845       .  S
O52          C62   1.253       .  A
O53          V58   1.964       .  S
O53          C62   1.281       .  A
O54          V58   1.956       .  S
O54          C61   1.278       .  A
O55          V58   1.945       .  S
O55          C60   1.276       .  A
O56          V58   1.957       .  S
O56          C59   1.276       .  A
V57          V58   2.036       .  T
C63          C64   1.576       .  S
C63          C69   1.577       .  S
C63          C67   1.566       .  S
C63        C1196   1.540       .  S
C64          H71   1.080       .  S
C64          C65   1.357       .  D
C65          C66   1.520       .  S
C65         C121   1.487       .  S
C66          C70   1.526       .  S
C66          C68   1.525       .  S
C66          H72   1.099       .  S
C67          H73   1.085       .  S
C67          C68   1.363       .  D
C68         C180   1.497       .  S
C69          H74   1.085       .  S
C69          C70   1.371       .  D
C70         C163   1.506       .  S
C75          C76   1.564       .  S
C75          C81   1.578       .  S
C75          C79   1.570       .  S
C75        C1182   1.541       .  S
C76          H83   1.085       .  S
C76          C77   1.364       .  D
C77          C78   1.525       .  S
C77         C178   1.495       .  S
C78          C82   1.523       .  S
C78          C80   1.522       .  S
C78          H84   1.102       .  S
C79          H85   1.084       .  S
C79          C80   1.359       .  D
C80         C152   1.493       .  S
C81          H86   1.084       .  S
C81          C82   1.370       .  D
C82         C166   1.493       .  S
C87          C88   1.574       .  S
C87          C93   1.571       .  S
C87          C91   1.569       .  S
C87        C1168   1.546       .  S
C88          H95   1.085       .  S
C88          C89   1.369       .  D
C89          C90   1.523       .  S
C89         C135   1.506       .  S
C90          C94   1.518       .  S
C90          C92   1.525       .  S
C90          H96   1.102       .  S
C91          H97   1.085       .  S
C91          C92   1.362       .  D
C92         C149   1.480       .  S
C93          H98   1.072       .  S
C93          C94   1.355       .  D
C94         C179   1.488       .  S
C99         C100   1.583       .  S
C99         C105   1.572       .  S
C99         C103   1.567       .  S
C99        C1154   1.554       .  S
C100        H107   1.080       .  S
C100        C101   1.362       .  D
C101        C102   1.524       .  S
C101        C138   1.501       .  S
C102        C106   1.525       .  S
C102        C104   1.523       .  S
C102        H108   1.102       .  S
C103        H109   1.085       .  S
C103        C104   1.365       .  D
C104        C177   1.490       .  S
C105        H110   1.084       .  S
C105        C106   1.368       .  D
C106        C123   1.505       .  S
O111        V119   1.955   1_556  S
O111        C121   1.277       .  A
O112        V119   1.954       .  S
O112        C122   1.277       .  A
O113        V119   1.963   1_556  S
O113        C123   1.278       .  A
O114        V119   1.966       .  S
O114        C124   1.277       .  A
O115        V120   1.855       .  S
O115        C124   1.259       .  A
O116        V120   1.860   1_556  S
O116        C123   1.259       .  A
O117        V120   1.844       .  S
O117        C122   1.253       .  A
O118        V120   1.843   1_556  S
O118        C121   1.253       .  A
V119        V120   2.048       .  T
O125        V133   1.967   1_556  S
O125        C135   1.278       .  A
O126        V133   1.954       .  S
O126        C136   1.276       .  A
O127        V133   1.969       .  S
O127        C137   1.281       .  A
O128        V133   1.965   1_556  S
O128        C138   1.280       .  A
O129        V134   1.855   1_556  S
O129        C138   1.256       .  A
O130        V134   1.853       .  S
O130        C137   1.255       .  A
O131        V134   1.852       .  S
O131        C136   1.257       .  A
O132        V134   1.857   1_556  S
O132        C135   1.258       .  A
V133        V134   2.039       .  T
O139        V147   1.841   1_556  S
O139        C149   1.253       .  A
O140        V147   1.849       .  S
O140        C150   1.254       .  A
O141        V147   1.860       .  S
O141        C151   1.259       .  A
O142        V147   1.857   1_556  S
O142        C152   1.258       .  A
O143        V148   1.954   1_556  S
O143        C152   1.276       .  A
O144        V148   1.953       .  S
O144        C151   1.276       .  A
O145        V148   1.947       .  S
O145        C150   1.277       .  A
O146        V148   1.952   1_556  S
O146        C149   1.276       .  A
V147        V148   2.044       .  T
O153        V161   1.969   1_556  S
O153        C163   1.278       .  A
O154        V161   1.958       .  S
O154        C164   1.278       .  A
O155        V161   1.959       .  S
O155        C165   1.278       .  A
O156        V161   1.958   1_556  S
O156        C166   1.276       .  A
O157        V162   1.847   1_556  S
O157        C166   1.256       .  A
O158        V162   1.850       .  S
O158        C165   1.255       .  A
O159        V162   1.857       .  S
O159        C164   1.257       .  A
O160        V162   1.850   1_556  S
O160        C163   1.256       .  A
V161        V162   2.046       .  T
O167        V175   1.843       .  S
O167        C177   1.254       .  A
O168        V175   1.851       .  S
O168        C178   1.256       .  A
O169        V175   1.852       .  S
O169        C179   1.256       .  A
O170        V175   1.847       .  S
O170        C180   1.255       .  A
O171        V176   1.963       .  S
O171        C180   1.277       .  A
O172        V176   1.950       .  S
O172        C179   1.277       .  A
O173        V176   1.959       .  S
O173        C178   1.277       .  A
O174        V176   1.959       .  S
O174        C177   1.277       .  A
V175        V176   2.044       .  T
C181        C182   1.573       .  S
C181        C187   1.563       .  S
C181        C185   1.572       .  S
C181       C1140   1.535       .  S
C182        H189   1.084       .  S
C182        C183   1.364       .  D
C183        C184   1.524       .  S
C183        C317   1.494       .  S
C184        C188   1.521       .  S
C184        C186   1.526       .  S
C184        H190   1.102       .  S
C185        H191   1.084       .  S
C185        C186   1.361       .  D
C186        C303   1.494       .  S
C187        H192   1.085       .  S
C187        C188   1.362       .  D
C188        C240   1.485       .  S
C193        C194   1.561       .  S
C193        C199   1.569       .  S
C193        C197   1.584       .  S
C193       C1126   1.545       .  S
C194        H201   1.086       .  S
C194        C195   1.360       .  D
C195        C196   1.521       .  S
C195        C301   1.482       .  S
C196        C200   1.523       .  S
C196        C198   1.528       .  S
C196        H202   1.102       .  S
C197        H203   1.084       .  S
C197        C198   1.379       .  D
C198        C345   1.511       .  S
C199        H204   1.083       .  S
C199        C200   1.354       .  D
C200        C242   1.490       .  S
C205        C206   1.574       .  S
C205        C211   1.574       .  S
C205        C209   1.564       .  S
C205       C1115   1.537       .  S
C206        H213   1.079       .  S
C206        C207   1.355       .  D
C207        C208   1.521       .  S
C207        C315   1.484       .  S
C208        C212   1.522       .  S
C208        C210   1.529       .  S
C208        H214   1.101       .  S
C209        H215   1.085       .  S
C209        C210   1.363       .  D
C210        C241   1.493       .  S
C211        H216   1.085       .  S
C211        C212   1.369       .  D
C212        C332   1.500       .  S
C217        C218   1.557       .  S
C217        C223   1.575       .  S
C217        C221   1.587       .  S
C217       C1101   1.551       .  S
C218        H225   1.086       .  S
C218        C219   1.354       .  D
C219        C220   1.521       .  S
C219        C239   1.480       .  S
C220        C224   1.530       .  S
C220        C222   1.524       .  S
C220        H226   1.101       .  S
C221        H227   1.080       .  S
C221        C222   1.367       .  D
C222        C344   1.503       .  S
C223        H228   1.084       .  S
C223        C224   1.371       .  D
C224        C330   1.509       .  S
O229        V237   1.849       .  S
O229        C239   1.255       .  A
O230        V237   1.851       .  S
O230        C240   1.256       .  A
O231        V237   1.845       .  S
O231        C241   1.254       .  A
O232        V237   1.853       .  S
O232        C242   1.255       .  A
O233        V238   1.956       .  S
O233        C242   1.279       .  A
O234        V238   1.963       .  S
O234        C241   1.279       .  A
O235        V238   1.951       .  S
O235        C240   1.275       .  A
O236        V238   1.947       .  S
O236        C239   1.276       .  A
V237        V238   2.040       .  T
C243        C244   1.565       .  S
C243        C249   1.573       .  S
C243        C247   1.579       .  S
C243       C1087   1.546       .  S
C244        H251   1.086       .  S
C244        C245   1.364       .  D
C245        C246   1.521       .  S
C245        C360   1.490       .  S
C246        C250   1.524       .  S
C246        C248   1.528       .  S
C246        H252   1.100       .  S
C247        H253   1.084       .  S
C247        C248   1.373       .  D
C248        C343   1.506       .  S
C249        H254   1.083       .  S
C249        C250   1.359       .  D
C250        C304   1.495       .  S
C255        C256   1.573       .  S
C255        C261   1.573       .  S
C255        C259   1.576       .  S
C255       C1070   1.551       .  S
C256        H263   1.085       .  S
C256        C257   1.370       .  D
C257        C258   1.524       .  S
C257        C331   1.502       .  S
C258        C262   1.525       .  S
C258        C260   1.527       .  S
C258        H264   1.101       .  S
C259        H265   1.085       .  S
C259        C260   1.372       .  D
C260        C346   1.508       .  S
C261        H266   1.080       .  S
C261        C262   1.355       .  D
C262        C357   1.493       .  S
C267        C268   1.584       .  S
C267        C273   1.565       .  S
C267        C271   1.571       .  S
C267       C1056   1.553       .  S
C268        H275   1.080       .  S
C268        C269   1.366       .  D
C269        C270   1.522       .  S
C269        C318   1.497       .  S
C270        C274   1.520       .  S
C270        C272   1.528       .  S
C270        H276   1.101       .  S
C271        H277   1.085       .  S
C271        C272   1.367       .  D
C272        C329   1.506       .  S
C273        H278   1.085       .  S
C273        C274   1.361       .  D
C274        C359   1.488       .  S
C279        C280   1.570       .  S
C279        C285   1.569       .  S
C279        C283   1.568       .  S
C279       C1042   1.530       .  S
C280        H287   1.080       .  S
C280        C281   1.357       .  D
C281        C282   1.519       .  S
C281        C302   1.480       .  S
C282        C286   1.525       .  S
C282        C284   1.525       .  S
C282        H288   1.101       .  S
C283        H289   1.085       .  S
C283        C284   1.364       .  D
C284        C316   1.489       .  S
C285        H290   1.085       .  S
C285        C286   1.362       .  D
C286        C358   1.496       .  S
O291        V299   1.849       .  S
O291        C301   1.256       .  A
O292        V299   1.851       .  S
O292        C302   1.256   1_545  A
O293        V299   1.853       .  S
O293        C303   1.256       .  A
O294        V299   1.851   1_565  S
O294        C304   1.255       .  A
O295        V300   1.961   1_565  S
O295        C304   1.279       .  A
O296        V300   1.959       .  S
O296        C303   1.278       .  A
O297        V300   1.944   1_565  S
O297        C302   1.274       .  A
O298        V300   1.949       .  S
O298        C301   1.274       .  A
V299        V300   2.041       .  T
O305        V313   1.952       .  S
O305        C315   1.276       .  A
O306        V313   1.957   1_565  S
O306        C316   1.276       .  A
O307        V313   1.958       .  S
O307        C317   1.277       .  A
O308        V313   1.960       .  S
O308        C318   1.277   1_545  A
O309        V314   1.848   1_565  S
O309        C318   1.255       .  A
O310        V314   1.847       .  S
O310        C317   1.255       .  A
O311        V314   1.836       .  S
O311        C316   1.252   1_545  A
O312        V314   1.841       .  S
O312        C315   1.252       .  A
V313        V314   2.052       .  T
O319        V327   1.971   1_565  S
O319        C329   1.281       .  A
O320        V327   1.974       .  S
O320        C330   1.282       .  A
O321        V327   1.964   1_565  S
O321        C331   1.278       .  A
O322        V327   1.962       .  S
O322        C332   1.278       .  A
O323        V328   1.859       .  S
O323        C332   1.258       .  A
O324        V328   1.856       .  S
O324        C331   1.258   1_545  A
O325        V328   1.853       .  S
O325        C330   1.256       .  A
O326        V328   1.853   1_565  S
O326        C329   1.255       .  A
V327        V328   2.040       .  T
O333        V341   1.971   1_565  S
O333        C343   1.279       .  A
O334        V341   1.967       .  S
O334        C344   1.279       .  A
O335        V341   1.970       .  S
O335        C345   1.278       .  A
O336        V341   1.970   1_565  S
O336        C346   1.279       .  A
O337        V342   1.854       .  S
O337        C346   1.257   1_545  A
O338        V342   1.855       .  S
O338        C345   1.258       .  A
O339        V342   1.849       .  S
O339        C344   1.254       .  A
O340        V342   1.847   1_565  S
O340        C343   1.255       .  A
V341        V342   2.051       .  T
O347        V355   1.960       .  S
O347        C357   1.280       .  A
O348        V355   1.963       .  S
O348        C358   1.279       .  A
O349        V355   1.950       .  S
O349        C359   1.275       .  A
O350        V355   1.952       .  S
O350        C360   1.275       .  A
O351        V356   1.855       .  S
O351        C360   1.258       .  A
O352        V356   1.858       .  S
O352        C359   1.258       .  A
O353        V356   1.848       .  S
O353        C358   1.254       .  A
O354        V356   1.848       .  S
O354        C357   1.253       .  A
V355        V356   2.041       .  T
C361        C362   1.567       .  S
C361        C367   1.569       .  S
C361        C365   1.580       .  S
C361       C1028   1.551       .  S
C362        H369   1.085       .  S
C362        C363   1.368       .  D
C363        C364   1.524       .  S
C363        C463   1.497       .  S
C364        C368   1.525       .  S
C364        C366   1.526       .  S
C364        H370   1.102       .  S
C365        H371   1.083       .  S
C365        C366   1.372       .  D
C366        C433   1.506       .  S
C367        H372   1.084       .  S
C367        C368   1.360       .  D
C368        C476   1.490       .  S
C373        C374   1.570       .  S
C373        C379   1.570       .  S
C373        C377   1.574       .  S
C373       C1014   1.548       .  S
C374        H381   1.085       .  S
C374        C375   1.361       .  D
C375        C376   1.523       .  S
C375        C449   1.493       .  S
C376        C380   1.526       .  S
C376        C378   1.528       .  S
C376        H382   1.102       .  S
C377        H383   1.083       .  S
C377        C378   1.368       .  D
C378        C462   1.494       .  S
C379        H384   1.085       .  S
C379        C380   1.368       .  D
C380        C477   1.503       .  S
C385        C386   1.573       .  S
C385        C391   1.569       .  S
C385        C389   1.572       .  S
C385       C1000   1.547       .  S
C386        H393   1.083       .  S
C386        C387   1.358       .  D
C387        C388   1.518       .  S
C387        C419   1.489       .  S
C388        C392   1.527       .  S
C388        C390   1.523       .  S
C388        H394   1.102       .  S
C389        H395   1.085       .  S
C389        C390   1.371       .  D
C390        C447   1.501       .  S
C391        H396   1.084       .  S
C391        C392   1.366       .  D
C392        C475   1.492       .  S
C397        C398   1.577       .  S
C397        C403   1.569       .  S
C397        C401   1.567       .  S
C397        C986   1.544       .  S
C398        H405   1.085       .  S
C398        C399   1.374       .  D
C399        C400   1.527       .  S
C399        C478   1.507       .  S
C400        C404   1.518       .  S
C400        C402   1.525       .  S
C400        H406   1.102       .  S
C401        H407   1.085       .  S
C401        C402   1.367       .  D
C402        C435   1.492       .  S
C403        H408   1.078       .  S
C403        C404   1.350       .  D
C404        C422   1.476       .  S
O409        V417   1.950       .  S
O409        C419   1.275       .  A
O410        V417   1.949   1_455  S
O410        C420   1.275       .  A
O411        V417   1.952   1_455  S
O411        C421   1.276       .  A
O412        V417   1.942       .  S
O412        C422   1.275       .  A
O413        V418   1.848       .  S
O413        C422   1.253       .  A
O414        V418   1.848   1_455  S
O414        C421   1.255       .  A
O415        V418   1.855       .  S
O415        C420   1.257   1_655  A
O416        V418   1.857       .  S
O416        C419   1.258       .  A
V417        V418   2.048       .  T
C420        C505   1.487       .  S
C421        C496   1.487       .  S
O423        V431   1.968       .  S
O423        C433   1.280       .  A
O424        V431   1.964   1_455  S
O424        C434   1.279       .  A
O425        V431   1.955       .  S
O425        C435   1.276       .  A
O426        V431   1.954   1_455  S
O426        C436   1.276       .  A
O427        V432   1.856       .  S
O427        C436   1.257   1_655  A
O428        V432   1.854       .  S
O428        C435   1.257       .  A
O429        V432   1.858   1_455  S
O429        C434   1.257       .  A
O430        V432   1.862       .  S
O430        C433   1.258       .  A
V431        V432   2.044       .  T
C434        C508   1.501       .  S
C436        C486   1.491       .  S
O437        V445   1.962       .  S
O437        C447   1.277       .  A
O438        V445   1.956   1_455  S
O438        C448   1.277       .  A
O439        V445   1.954       .  S
O439        C449   1.277       .  A
O440        V445   1.957   1_455  S
O440        C450   1.277       .  A
O441        V446   1.859       .  S
O441        C450   1.257   1_655  A
O442        V446   1.858       .  S
O442        C449   1.257       .  A
O443        V446   1.860   1_455  S
O443        C448   1.257       .  A
O444        V446   1.854       .  S
O444        C447   1.257       .  A
V445        V446   2.048       .  T
C448        C520   1.495       .  S
C450        C493   1.495       .  S
O451        V459   1.853   1_455  S
O451        C461   1.255       .  A
O452        V459   1.852       .  S
O452        C462   1.255       .  A
O453        V459   1.859       .  S
O453        C463   1.258       .  A
O454        V459   1.862       .  S
O454        C464   1.259   1_655  A
O455        V460   1.958   1_455  S
O455        C464   1.277       .  A
O456        V460   1.959       .  S
O456        C463   1.277       .  A
O457        V460   1.959       .  S
O457        C462   1.278       .  A
O458        V460   1.957   1_455  S
O458        C461   1.278       .  A
V459        V460   2.045       .  T
C461        C481   1.492       .  S
C464        C517   1.499       .  S
O465        V473   1.853       .  S
O465        C475   1.256       .  A
O466        V473   1.856       .  S
O466        C476   1.256       .  A
O467        V473   1.861       .  S
O467        C477   1.257       .  A
O468        V473   1.859       .  S
O468        C478   1.258       .  A
O469        V474   1.971       .  S
O469        C478   1.280       .  A
O470        V474   1.968       .  S
O470        C477   1.280       .  A
O471        V474   1.955       .  S
O471        C476   1.277       .  A
O472        V474   1.956       .  S
O472        C475   1.277       .  A
V473        V474   2.037       .  T
C479        C480   1.563       .  S
C479        C485   1.570       .  S
C479        C483   1.575       .  S
C479        C972   1.541       .  S
C480        H487   1.086       .  S
C480        C481   1.362       .  D
C481        C482   1.525       .  S
C482        C486   1.523       .  S
C482        C484   1.529       .  S
C482        H488   1.103       .  S
C483        H489   1.084       .  S
C483        C484   1.372       .  D
C484        C540   1.500       .  S
C485        H490   1.085       .  S
C485        C486   1.361       .  D
C491        C492   1.576       .  S
C491        C497   1.568       .  S
C491        C495   1.568       .  S
C491        C961   1.545       .  S
C492        H499   1.084       .  S
C492        C493   1.364       .  D
C493        C494   1.520       .  S
C494        C498   1.523       .  S
C494        C496   1.527       .  S
C494        H500   1.102       .  S
C495        H501   1.084       .  S
C495        C496   1.366       .  D
C497        H502   1.085       .  S
C497        C498   1.366       .  D
C498        C539   1.500       .  S
C503        C504   1.573       .  S
C503        C509   1.562       .  S
C503        C507   1.574       .  S
C503        C947   1.540       .  S
C504        H511   1.082       .  S
C504        C505   1.361       .  D
C505        C506   1.522       .  S
C506        C510   1.526       .  S
C506        C508   1.526       .  S
C506        H512   1.103       .  S
C507        H513   1.085       .  S
C507        C508   1.369       .  D
C509        H514   1.086       .  S
C509        C510   1.361       .  D
C510        C538   1.490       .  S
C515        C516   1.573       .  S
C515        C521   1.564       .  S
C515        C519   1.581       .  S
C515        C933   1.553       .  S
C516        H523   1.084       .  S
C516        C517   1.369       .  D
C517        C518   1.524       .  S
C518        C522   1.524       .  S
C518        C520   1.521       .  S
C518        H524   1.103       .  S
C519        H525   1.080       .  S
C519        C520   1.364       .  D
C521        H526   1.086       .  S
C521        C522   1.360       .  D
C522        C537   1.489       .  S
O527        V535   1.850       .  S
O527        C537   1.255       .  A
O528        V535   1.853       .  S
O528        C538   1.255       .  A
O529        V535   1.862       .  S
O529        C539   1.258       .  A
O530        V535   1.862       .  S
O530        C540   1.259       .  A
O531        V536   1.961       .  S
O531        C540   1.278       .  A
O532        V536   1.962       .  S
O532        C539   1.278       .  A
O533        V536   1.957       .  S
O533        C538   1.278       .  A
O534        V536   1.957       .  S
O534        C537   1.278       .  A
V535        V536   2.037       .  T
C541        C542   1.530       .  S
C541        C547   1.526       .  S
C541        C545   1.538       .  S
C541        C916   1.533       .  S
C542        H549   1.086       .  S
C542        C543   1.364       .  D
C543        C544   1.555       .  S
C543       C1213   1.496       .  S
C544        C548   1.553       .  S
C544        C546   1.553       .  S
C544        H550   1.110       .  S
C545        H551   1.079       .  S
C545        C546   1.360       .  D
C546       C1098   1.488       .  S
C547        H552   1.087       .  S
C547        C548   1.361       .  D
C548        C930   1.484       .  S
C553        C554   1.532       .  S
C553        C559   1.534       .  S
C553        C557   1.533       .  S
C553       C1238   1.535       .  S
C554        H561   1.085       .  S
C554        C555   1.373       .  D
C555        C556   1.563       .  S
C555       C1017   1.516       .  S
C556        C560   1.552       .  S
C556        C558   1.543       .  S
C556        H562   1.107       .  S
C557        H563   1.087       .  S
C557        C558   1.363       .  D
C558        C905   1.487       .  S
C559        H564   1.081       .  S
C559        C560   1.360       .  D
C560       C1129   1.482       .  S
C565        C566   1.539       .  S
C565        C571   1.529       .  S
C565        C569   1.533       .  S
C565       C1255   1.538       .  S
C566        H573   1.077       .  S
C566        C567   1.370       .  D
C567        C568   1.554       .  S
C567        C958   1.508       .  S
C568        C572   1.552       .  S
C568        C570   1.543       .  S
C568        H574   1.109       .  S
C569        H575   1.087       .  S
C569        C570   1.363       .  D
C570        C888   1.483       .  S
C571        H576   1.087       .  S
C571        C572   1.364       .  D
C572       C1073   1.486       .  S
C577        C578   1.540       .  S
C577        C583   1.531       .  S
C577        C581   1.535       .  S
C577        C874   1.544       .  S
C578        H585   1.080       .  S
C578        C579   1.364       .  D
C579        C580   1.543       .  S
C579       C1112   1.477       .  S
C580        C584   1.555       .  S
C580        C582   1.536       .  S
C580        H586   1.106       .  S
C581        H587   1.086       .  S
C581        C582   1.362       .  D
C582       C1199   1.479       .  S
C583        H588   1.084       .  S
C583        C584   1.374       .  D
C584        C975   1.514       .  S
C589        C590   1.531       .  S
C589        C595   1.536       .  S
C589        C593   1.536       .  S
C589        C860   1.528       .  S
C590        H597   1.087       .  S
C590        C591   1.358       .  D
C591        C592   1.543       .  S
C591       C1185   1.479       .  S
C592        C596   1.558       .  S
C592        C594   1.545       .  S
C592        H598   1.108       .  S
C593        H599   1.082       .  S
C593        C594   1.362       .  D
C594       C1143   1.475       .  S
C595        H600   1.086       .  S
C595        C596   1.370       .  D
C596       C1031   1.511       .  S
C601        C602   1.536       .  S
C601        C607   1.522       .  S
C601        C605   1.529       .  S
C601        C846   1.534       .  S
C602        H609   1.080       .  S
C602        C603   1.364       .  D
C603        C604   1.557       .  S
C603       C1224   1.488       .  S
C604        C608   1.560       .  S
C604        C606   1.551       .  S
C604        H610   1.108       .  S
C605        H611   1.086       .  S
C605        C606   1.361       .  D
C606       C1084   1.487       .  S
C607        H612   1.086       .  S
C607        C608   1.367       .  D
C608       C1003   1.513       .  S
C613        C614   1.530       .  S
C613        C619   1.527       .  S
C613        C617   1.542       .  S
C613        C832   1.527       .  S
C614        H621   1.087       .  S
C614        C615   1.361       .  D
C615        C616   1.550       .  S
C615        C944   1.483       .  S
C616        C620   1.554       .  S
C616        C618   1.549       .  S
C616        H622   1.110       .  S
C617        H623   1.082       .  S
C617        C618   1.367       .  D
C618       C1157   1.487       .  S
C619        H624   1.087       .  S
C619        C620   1.361       .  D
C620       C1059   1.494       .  S
C625        C626   1.571       .  S
C625        C631   1.564       .  S
C625        C629   1.570       .  S
C625        C919   1.529       .  S
C626        H633   1.080       .  S
C626        C627   1.354       .  D
C627        C628   1.520       .  S
C627        C749   1.476       .  S
C628        C632   1.519       .  S
C628        C630   1.525       .  S
C628        H634   1.102       .  S
C629        H635   1.084       .  S
C629        C630   1.364       .  D
C630        C695   1.492       .  S
C631        H636   1.086       .  S
C631        C632   1.358       .  D
C632        C723   1.484       .  S
C637        C638   1.578       .  S
C637        C643   1.566       .  S
C637        C641   1.565       .  S
C637        C877   1.540       .  S
C638        H645   1.080       .  S
C638        C639   1.364       .  D
C639        C640   1.520       .  S
C639        C748   1.488       .  S
C640        C644   1.524       .  S
C640        C642   1.524       .  S
C640        H646   1.103       .  S
C641        H647   1.086       .  S
C641        C642   1.361       .  D
C642        C722   1.486       .  S
C643        H648   1.086       .  S
C643        C644   1.363       .  D
C644        C802   1.491       .  S
C649        C650   1.570       .  S
C649        C655   1.572       .  S
C649        C653   1.574       .  S
C649        C902   1.548       .  S
C650        H657   1.085       .  S
C650        C651   1.367       .  D
C651        C652   1.521       .  S
C651        C747   1.494       .  S
C652        C656   1.523       .  S
C652        C654   1.520       .  S
C652        H658   1.102       .  S
C653        H659   1.079       .  S
C653        C654   1.357       .  D
C654        C789   1.484       .  S
C655        H660   1.085       .  S
C655        C656   1.371       .  D
C656        C698   1.499       .  S
C661        C662   1.576       .  S
C661        C667   1.571       .  S
C661        C665   1.567       .  S
C661        C891   1.545       .  S
C662        H669   1.080       .  S
C662        C663   1.361       .  D
C663        C664   1.521       .  S
C663        C721   1.489       .  S
C664        C668   1.525       .  S
C664        C666   1.525       .  S
C664        H670   1.103       .  S
C665        H671   1.085       .  S
C665        C666   1.366       .  D
C666        C697   1.496       .  S
C667        H672   1.085       .  S
C667        C668   1.368       .  D
C668        C776   1.499       .  S
C673        C674   1.576       .  S
C673        C679   1.563       .  S
C673        C677   1.557       .  S
C673        C849   1.528       .  S
C674        H681   1.080       .  S
C674        C675   1.361       .  D
C675        C676   1.525       .  S
C675        C696   1.486       .  S
C676        C680   1.526       .  S
C676        C678   1.523       .  S
C676        H682   1.105       .  S
C677        H683   1.086       .  S
C677        C678   1.354       .  D
C678        C788   1.477       .  S
C679        H684   1.085       .  S
C679        C680   1.360       .  D
C680        C774   1.485       .  S
O685        V693   1.963   1_455  S
O685        C695   1.278       .  A
O686        V693   1.953   1_565  S
O686        C696   1.278       .  A
O687        V693   1.959   1_465  S
O687        C697   1.278       .  A
O688        V693   1.958       .  S
O688        C698   1.276       .  A
O689        V694   1.863       .  S
O689        C698   1.260       .  A
O690        V694   1.859   1_565  S
O690        C697   1.258   1_655  A
O691        V694   1.853       .  S
O691        C696   1.255   1_545  A
O692        V694   1.845   1_455  S
O692        C695   1.253       .  A
V693        V694   2.039       .  T
C699        C700   1.561       .  S
C699        C705   1.573       .  S
C699        C703   1.566       .  S
C699        C835   1.527       .  S
C700        H707   1.086       .  S
C700        C701   1.360       .  D
C701        C702   1.523       .  S
C701        C724   1.481       .  S
C702        C706   1.522       .  S
C702        C704   1.528       .  S
C702        H708   1.104       .  S
C703        H709   1.085       .  S
C703        C704   1.363       .  D
C704        C773   1.490       .  S
C705        H710   1.080       .  S
C705        C706   1.356       .  D
C706        C804   1.484       .  S
O711        V719   1.954   1_565  S
O711        C721   1.277       .  A
O712        V719   1.952       .  S
O712        C722   1.277   1_554  A
O713        V719   1.949       .  S
O713        C723   1.275       .  A
O714        V719   1.946   1_566  S
O714        C724   1.274       .  A
O715        V720   1.852   1_565  S
O715        C724   1.256   1_554  A
O716        V720   1.851       .  S
O716        C723   1.256       .  A
O717        V720   1.852   1_556  S
O717        C722   1.255       .  A
O718        V720   1.854       .  S
O718        C721   1.256   1_545  A
V719        V720   2.046       .  T
C725        C726   1.568       .  S
C725        C731   1.568       .  S
C725        C729   1.566       .  S
C725        C863   1.528       .  S
C726        H733   1.085       .  S
C726        C727   1.362       .  D
C727        C728   1.523       .  S
C727        C803   1.490       .  S
C728        C732   1.519       .  S
C728        C730   1.523       .  S
C728        H734   1.103       .  S
C729        H735   1.085       .  S
C729        C730   1.365       .  D
C730        C787   1.486       .  S
C731        H736   1.079       .  S
C731        C732   1.352       .  D
C732        C750   1.475       .  S
O737        V745   1.859       .  S
O737        C747   1.259       .  A
O738        V745   1.859   1_455  S
O738        C748   1.258   1_554  A
O739        V745   1.845       .  S
O739        C749   1.254   1_655  A
O740        V745   1.846   1_556  S
O740        C750   1.253       .  A
O741        V746   1.942       .  S
O741        C750   1.275   1_554  A
O742        V746   1.944   1_455  S
O742        C749   1.275       .  A
O743        V746   1.950       .  S
O743        C748   1.275   1_654  A
O744        V746   1.955       .  S
O744        C747   1.276       .  A
V745        V746   2.045       .  T
C751        C752   1.571       .  S
C751        C757   1.573       .  S
C751        C755   1.568       .  S
C751        C818   1.549       .  S
C752        H759   1.085       .  S
C752        C753   1.370       .  D
C753        C754   1.527       .  S
C753        C801   1.495       .  S
C754        C758   1.518       .  S
C754        C756   1.526       .  S
C754        H760   1.104       .  S
C755        H761   1.085       .  S
C755        C756   1.369       .  D
C756        C775   1.497       .  S
C757        H762   1.078       .  S
C757        C758   1.353       .  D
C758        C790   1.482       .  S
O763        V771   1.961   1_455  S
O763        C773   1.279   1_554  A
O764        V771   1.955       .  S
O764        C774   1.278       .  A
O765        V771   1.958       .  S
O765        C775   1.278   1_554  A
O766        V771   1.961   1_455  S
O766        C776   1.278       .  A
O767        V772   1.862   1_455  S
O767        C776   1.259       .  A
O768        V772   1.863       .  S
O768        C775   1.259   1_554  A
O769        V772   1.849       .  S
O769        C774   1.254       .  A
O770        V772   1.846   1_556  S
O770        C773   1.253   1_655  A
V771        V772   2.038       .  T
O777        V785   1.952       .  S
O777        C787   1.275   1_554  A
O778        V785   1.944   1_565  S
O778        C788   1.275       .  A
O779        V785   1.950       .  S
O779        C789   1.277       .  A
O780        V785   1.944   1_565  S
O780        C790   1.276   1_554  A
O781        V786   1.858   1_556  S
O781        C790   1.256   1_545  A
O782        V786   1.850       .  S
O782        C789   1.255       .  A
O783        V786   1.850   1_565  S
O783        C788   1.255       .  A
O784        V786   1.852       .  S
O784        C787   1.256   1_554  A
V785        V786   2.043       .  T
O791        V799   1.855   1_565  S
O791        C801   1.257       .  A
O792        V799   1.857       .  S
O792        C802   1.257   1_655  A
O793        V799   1.853       .  S
O793        C803   1.256       .  A
O794        V799   1.854   1_455  S
O794        C804   1.256   1_545  A
O795        V800   1.951   1_565  S
O795        C804   1.278   1_655  A
O796        V800   1.956       .  S
O796        C803   1.277       .  A
O797        V800   1.957   1_455  S
O797        C802   1.277       .  A
O798        V800   1.960   1_565  S
O798        C801   1.278       .  A
V799        V800   2.037       .  T
C805        C806   1.529       .  S
C805        C811   1.534       .  S
C805        C809   1.536       .  S
C805       C1045   1.537       .  S
C806        H813   1.087       .  S
C806        C807   1.367       .  D
C807        C808   1.550       .  S
C807        C821   1.489       .  S
C808        C812   1.545       .  S
C808        C810   1.539       .  S
C808        H814   1.110       .  S
C809        H815   1.086       .  S
C809        C810   1.368       .  D
C810        C989   1.481       .  S
C811        H816   1.078       .  S
C811        C812   1.363       .  D
C812       C1171   1.490       .  S
C817        C818   1.414       .  A
C817        C822   1.402       .  A
C817        H824   1.071       .  S
C818        C819   1.419       .  A
C819        C820   1.414       .  A
C819        N826   1.432       .  S
C820        C821   1.403       .  A
C820        H825   1.084       .  S
C821        C822   1.406       .  A
C822        N823   1.440       .  S
N823        H827   1.046       .  S
N823        H828   1.044       .  S
N826        H829   1.045       .  S
N826        H830   1.046       .  S
C831        C832   1.407       .  A
C831        C836   1.403       .  A
C831        H838   1.077       .  S
C832        C833   1.415       .  A
C833        C834   1.394       .  A
C833        N840   1.434       .  S
C834        C835   1.405       .  A
C834        H839   1.074       .  S
C835        C836   1.415       .  A
C836        N837   1.433       .  S
N837        H841   1.046       .  S
N837        H842   1.045       .  S
N840        H843   1.046       .  S
N840        H844   1.046       .  S
C845        C846   1.406       .  A
C845        C850   1.393       .  A
C845        H852   1.074       .  S
C846        C847   1.427       .  A
C847        C848   1.393       .  A
C847        N854   1.436       .  S
C848        C849   1.405       .  A
C848        H853   1.074       .  S
C849        C850   1.425       .  A
C850        N851   1.437       .  S
N851        H855   1.043       .  S
N851        H856   1.039       .  S
N854        H857   1.044       .  S
N854        H858   1.038       .  S
C859        C860   1.410       .  A
C859        C864   1.403       .  A
C859        H866   1.076       .  S
C860        C861   1.412       .  A
C861        C862   1.395       .  A
C861        N868   1.435       .  S
C862        C863   1.408       .  A
C862        H867   1.074       .  S
C863        C864   1.412       .  A
C864        N865   1.433       .  S
N865        H869   1.045       .  S
N865        H870   1.046       .  S
N868        H871   1.045       .  S
N868        H872   1.046       .  S
C873        C874   1.409       .  A
C873        C878   1.402       .  A
C873        H880   1.074       .  S
C874        C875   1.425       .  A
C875        C876   1.398       .  A
C875        N882   1.436       .  S
C876        C877   1.409       .  A
C876        H881   1.075       .  S
C877        C878   1.428       .  A
C878        N879   1.442       .  S
N879        H883   1.045       .  S
N879        H884   1.039       .  S
N882        H885   1.042       .  S
N882        H886   1.041       .  S
C887        C888   1.399       .  A
C887        C892   1.411       .  A
C887        H894   1.084       .  S
C888        C889   1.403       .  A
C889        C890   1.403       .  A
C889        N896   1.433       .  S
C890        C891   1.414       .  A
C890        H895   1.074       .  S
C891        C892   1.421       .  A
C892        N893   1.432       .  S
N893        H897   1.045       .  S
N893        H898   1.046       .  S
N896        H899   1.046       .  S
N896        H900   1.045       .  S
C901        C902   1.414       .  A
C901        C906   1.401       .  A
C901        H908   1.073       .  S
C902        C903   1.420       .  A
C903        C904   1.414       .  A
C903        N910   1.432       .  S
C904        C905   1.401       .  A
C904        H909   1.084       .  S
C905        C906   1.404       .  A
C906        N907   1.433       .  S
N907        H911   1.046       .  S
N907        H912   1.045       .  S
N910        H913   1.045       .  S
N910        H914   1.046       .  S
C915        C916   1.410       .  A
C915        C920   1.392       .  A
C915        H922   1.072       .  S
C916        C917   1.423       .  A
C917        C918   1.393       .  A
C917        N924   1.437       .  S
C918        C919   1.409       .  A
C918        H923   1.074       .  S
C919        C920   1.420       .  A
C920        N921   1.436       .  S
N921        H925   1.041       .  S
N921        H926   1.041       .  S
N924        H927   1.041       .  S
N924        H928   1.042       .  S
C929        C930   1.397       .  A
C929        C934   1.406       .  A
C929        H936   1.084       .  S
C930        C931   1.406       .  A
C931        C932   1.406       .  A
C931        N938   1.439       .  S
C932        C933   1.415       .  A
C932        H937   1.073       .  S
C933        C934   1.433       .  A
C934        N935   1.434       .  S
N935        H939   1.042       .  S
N935        H940   1.042       .  S
N938        H941   1.044       .  S
N938        H942   1.046       .  S
C943        C944   1.399       .  A
C943        C948   1.408       .  A
C943        H950   1.083       .  S
C944        C945   1.410       .  A
C945        C946   1.401       .  A
C945        N952   1.433       .  S
C946        C947   1.414       .  A
C946        H951   1.078       .  S
C947        C948   1.418       .  A
C948        N949   1.432       .  S
N949        H953   1.045       .  S
N949        H954   1.046       .  S
N952        H955   1.044       .  S
N952        H956   1.045       .  S
C957        C958   1.407       .  A
C957        C962   1.402       .  A
C957        H964   1.082       .  S
C958        C959   1.410       .  A
C959        C960   1.416       .  A
C959        N966   1.431       .  S
C960        C961   1.418       .  A
C960        H965   1.081       .  S
C961        C962   1.418       .  A
C962        N963   1.438       .  S
N963        H967   1.045       .  S
N963        H968   1.046       .  S
N966        H969   1.046       .  S
N966        H970   1.045       .  S
C971        C972   1.412       .  A
C971        C976   1.416       .  A
C971        H978   1.081       .  S
C972        C973   1.415       .  A
C973        C974   1.398       .  A
C973        N980   1.433       .  S
C974        C975   1.408       .  A
C974        H979   1.080       .  S
C975        C976   1.416       .  A
C976        N977   1.430       .  S
N977        H981   1.045       .  S
N977        H982   1.046       .  S
N980        H983   1.046       .  S
N980        H984   1.046       .  S
C985        C986   1.416       .  A
C985        C990   1.401       .  A
C985        H992   1.071       .  S
C986        C987   1.417       .  A
C987        C988   1.410       .  A
C987        N994   1.432       .  S
C988        C989   1.401       .  A
C988        H993   1.084       .  S
C989        C990   1.404       .  A
C990        N991   1.440       .  S
N991        H995   1.046       .  S
N991        H996   1.045       .  S
N994        H997   1.045       .  S
N994        H998   1.046       .  S
C999       C1000   1.416       .  A
C999       C1004   1.420       .  A
C999       H1006   1.081       .  S
C1000      C1001   1.417       .  A
C1001      C1002   1.400       .  A
C1001      N1008   1.439       .  S
C1002      C1003   1.409       .  A
C1002      H1007   1.081       .  S
C1003      C1004   1.414       .  A
C1004      N1005   1.436       .  S
N1005      H1009   1.046       .  S
N1005      H1010   1.044       .  S
N1008      H1011   1.046       .  S
N1008      H1012   1.045       .  S
C1013      C1014   1.414       .  A
C1013      C1018   1.415       .  A
C1013      H1020   1.080       .  S
C1014      C1015   1.419       .  A
C1015      C1016   1.407       .  A
C1015      N1022   1.439       .  S
C1016      C1017   1.410       .  A
C1016      H1021   1.081       .  S
C1017      C1018   1.412       .  A
C1018      N1019   1.430       .  S
N1019      H1023   1.046       .  S
N1019      H1024   1.045       .  S
N1022      H1025   1.046       .  S
N1022      H1026   1.045       .  S
C1027      C1028   1.416       .  A
C1027      C1032   1.411       .  A
C1027      H1034   1.081       .  S
C1028      C1029   1.416       .  A
C1029      C1030   1.409       .  A
C1029      N1036   1.431       .  S
C1030      C1031   1.410       .  A
C1030      H1035   1.083       .  S
C1031      C1032   1.410       .  A
C1032      N1033   1.431       .  S
N1033      H1037   1.046       .  S
N1033      H1038   1.045       .  S
N1036      H1039   1.046       .  S
N1036      H1040   1.046       .  S
C1041      C1042   1.411       .  A
C1041      C1046   1.403       .  A
C1041      H1048   1.075       .  S
C1042      C1043   1.409       .  A
C1043      C1044   1.398       .  A
C1043      N1050   1.434       .  S
C1044      C1045   1.412       .  A
C1044      H1049   1.073       .  S
C1045      C1046   1.413       .  A
C1046      N1047   1.434       .  S
N1047      H1051   1.046       .  S
N1047      H1052   1.045       .  S
N1050      H1053   1.045       .  S
N1050      H1054   1.046       .  S
C1055      C1056   1.411       .  A
C1055      C1060   1.401       .  A
C1055      H1062   1.074       .  S
C1056      C1057   1.435       .  A
C1057      C1058   1.409       .  A
C1057      N1064   1.434       .  S
C1058      C1059   1.398       .  A
C1058      H1063   1.084       .  S
C1059      C1060   1.410       .  A
C1060      N1061   1.434       .  S
N1061      H1065   1.046       .  S
N1061      H1066   1.046       .  S
N1064      H1067   1.042       .  S
N1064      H1068   1.042       .  S
C1069      C1070   1.416       .  A
C1069      C1074   1.403       .  A
C1069      H1076   1.074       .  S
C1070      C1071   1.420       .  A
C1071      C1072   1.414       .  A
C1071      N1078   1.432       .  S
C1072      C1073   1.401       .  A
C1072      H1077   1.084       .  S
C1073      C1074   1.403       .  A
C1074      N1075   1.434       .  S
N1075      H1079   1.046       .  S
N1075      H1080   1.046       .  S
N1078      H1081   1.046       .  S
N1078      H1082   1.045       .  S
C1083      C1084   1.402       .  A
C1083      C1088   1.412       .  A
C1083      H1090   1.084       .  S
C1084      C1085   1.409       .  A
C1085      C1086   1.401       .  A
C1085      N1092   1.433       .  S
C1086      C1087   1.414       .  A
C1086      H1091   1.079       .  S
C1087      C1088   1.419       .  A
C1088      N1089   1.432       .  S
N1089      H1093   1.046       .  S
N1089      H1094   1.045       .  S
N1092      H1095   1.044       .  S
N1092      H1096   1.046       .  S
C1097      C1098   1.399       .  A
C1097      C1102   1.411       .  A
C1097      H1104   1.084       .  S
C1098      C1099   1.405       .  A
C1099      C1100   1.400       .  A
C1099      N1106   1.432       .  S
C1100      C1101   1.411       .  A
C1100      H1105   1.074       .  S
C1101      C1102   1.436       .  A
C1102      N1103   1.434       .  S
N1103      H1107   1.043       .  S
N1103      H1108   1.041       .  S
N1106      H1109   1.045       .  S
N1106      H1110   1.046       .  S
C1111      C1112   1.398       .  A
C1111      C1116   1.406       .  A
C1111      H1118   1.083       .  S
C1112      C1113   1.407       .  A
C1113      C1114   1.400       .  A
C1113      N1120   1.440       .  S
C1114      C1115   1.412       .  A
C1114      H1119   1.072       .  S
C1115      C1116   1.418       .  A
C1116      N1117   1.432       .  S
N1117      H1121   1.045       .  S
N1117      H1122   1.046       .  S
N1120      H1123   1.043       .  S
N1120      H1124   1.046       .  S
C1125      C1126   1.417       .  A
C1125      C1130   1.402       .  A
C1125      H1132   1.078       .  S
C1126      C1127   1.418       .  A
C1127      C1128   1.412       .  A
C1127      N1134   1.431       .  S
C1128      C1129   1.402       .  A
C1128      H1133   1.082       .  S
C1129      C1130   1.400       .  A
C1130      N1131   1.433       .  S
N1131      H1135   1.045       .  S
N1131      H1136   1.046       .  S
N1134      H1137   1.045       .  S
N1134      H1138   1.046       .  S
C1139      C1140   1.413       .  A
C1139      C1144   1.405       .  A
C1139      H1146   1.080       .  S
C1140      C1141   1.422       .  A
C1141      C1142   1.406       .  A
C1141      N1148   1.437       .  S
C1142      C1143   1.398       .  A
C1142      H1147   1.083       .  S
C1143      C1144   1.403       .  A
C1144      N1145   1.437       .  S
N1145      H1149   1.046       .  S
N1145      H1150   1.045       .  S
N1148      H1151   1.044       .  S
N1148      H1152   1.046       .  S
C1153      C1154   1.414       .  A
C1153      C1158   1.405       .  A
C1153      H1160   1.074       .  S
C1154      C1155   1.433       .  A
C1155      C1156   1.410       .  A
C1155      N1162   1.434       .  S
C1156      C1157   1.399       .  A
C1156      H1161   1.083       .  S
C1157      C1158   1.402       .  A
C1158      N1159   1.437       .  S
N1159      H1163   1.045       .  S
N1159      H1164   1.045       .  S
N1162      H1165   1.041       .  S
N1162      H1166   1.043       .  S
C1167      C1168   1.419       .  A
C1167      C1172   1.411       .  A
C1167      H1174   1.083       .  S
C1168      C1169   1.429       .  A
C1169      C1170   1.391       .  A
C1169      N1176   1.429       .  S
C1170      C1171   1.401       .  A
C1170      H1175   1.085       .  S
C1171      C1172   1.403       .  A
C1172      N1173   1.436       .  S
N1173      H1177   1.046       .  S
N1173      H1178   1.044       .  S
N1176      H1179   1.044       .  S
N1176      H1180   1.044       .  S
C1181      C1182   1.415       .  A
C1181      C1186   1.406       .  A
C1181      H1188   1.080       .  S
C1182      C1183   1.421       .  A
C1183      C1184   1.410       .  A
C1183      N1190   1.437       .  S
C1184      C1185   1.400       .  A
C1184      H1189   1.083       .  S
C1185      C1186   1.402       .  A
C1186      N1187   1.438       .  S
N1187      H1191   1.045       .  S
N1187      H1192   1.046       .  S
N1190      H1193   1.045       .  S
N1190      H1194   1.046       .  S
C1195      C1196   1.415       .  A
C1195      C1200   1.400       .  A
C1195      H1202   1.075       .  S
C1196      C1197   1.418       .  A
C1197      C1198   1.409       .  A
C1197      N1204   1.432       .  S
C1198      C1199   1.400       .  A
C1198      H1203   1.081       .  S
C1199      C1200   1.399       .  A
C1200      N1201   1.433       .  S
N1201      H1205   1.045       .  S
N1201      H1206   1.046       .  S
N1204      H1207   1.045       .  S
N1204      H1208   1.046       .  S
C1209      C1210   1.416       .  A
C1209      C1214   1.401       .  A
C1209      H1216   1.072       .  S
C1210      C1211   1.433       .  A
C1211      C1212   1.413       .  A
C1211      N1218   1.433       .  S
C1212      C1213   1.401       .  A
C1212      H1217   1.082       .  S
C1213      C1214   1.404       .  A
C1214      N1215   1.433       .  S
N1215      H1219   1.046       .  S
N1215      H1220   1.046       .  S
N1218      H1221   1.043       .  S
N1218      H1222   1.041       .  S
C1223      C1224   1.399       .  A
C1223      C1228   1.411       .  A
C1223      H1230   1.084       .  S
C1224      C1225   1.411       .  A
C1225      C1226   1.407       .  A
C1225      N1232   1.439       .  S
C1226      C1227   1.410       .  A
C1226      H1231   1.076       .  S
C1227      C1228   1.421       .  A
C1228      N1229   1.432       .  S
N1229      H1233   1.046       .  S
N1229      H1234   1.045       .  S
N1232      H1235   1.044       .  S
N1232      H1236   1.046       .  S
C1237      C1238   1.410       .  A
C1237      C1242   1.402       .  A
C1237      H1244   1.075       .  S
C1238      C1239   1.413       .  A
C1239      C1240   1.400       .  A
C1239      N1246   1.434       .  S
C1240      C1241   1.410       .  A
C1240      H1245   1.074       .  S
C1241      C1242   1.412       .  A
C1242      N1243   1.433       .  S
N1243      H1247   1.045       .  S
N1243      H1248   1.046       .  S
N1246      H1249   1.046       .  S
N1246      H1250   1.045       .  S
C1251      C1252   1.407       .  A
C1251      C1256   1.404       .  A
C1251      H1258   1.077       .  S
C1252      C1253   1.413       .  A
C1253      C1254   1.398       .  A
C1253      N1260   1.435       .  S
C1254      C1255   1.409       .  A
C1254      H1259   1.074       .  S
C1255      C1256   1.416       .  A
C1256      N1257   1.433       .  S
N1257      H1261   1.046       .  S
N1257      H1262   1.046       .  S
N1260      H1263   1.046       .  S
N1260      H1264   1.046       .  S
