geometry optimzed in LAMMPS
_audit_creation_date              2020-11-30 
_audit_creation_method            'lammps2cif' 
_symmetry_space_group_name_H-M    'P1' 
_symmetry_Int_Tables_number       1 
_symmetry_cell_setting            triclinic 
loop_ 
_symmetry_equiv_pos_as_xyz 
  x,y,z 
_cell_length_a                    33.355339322753856 
_cell_length_b                    33.01421657636062 
_cell_length_c                    32.78112768047524 
_cell_angle_alpha                 91.45054993681428 
_cell_angle_beta                  91.27861301850166 
_cell_angle_gamma                 90.88932640629852 
loop_ 
_atom_site_label 
_atom_site_type_symbol 
_atom_site_fract_x 
_atom_site_fract_y 
_atom_site_fract_z 
_atom_site_charge 
C1          C  0.66126822  0.65578589  0.87953166     0.02590
C2          C  0.68046859  0.62406513  0.89843586    -0.13560
C3          C  0.67049189  0.61352114  0.93742346     0.00090
C4          C  0.63641481  0.63345786  0.95537280    -0.12080
C5          C  0.61672946  0.66683233  0.93564871     0.02590
C6          C  0.62861909  0.67554796  0.89654567    -0.11500
H7          H  0.70704215  0.61148048  0.88475803     0.08180
H8          H  0.62707819  0.62498918  0.98533736     0.05710
H9          H  0.61656542  0.70181164  0.88158107     0.05560
C10         C  0.91641678  0.66277116  0.62996665     0.02590
C11         C  0.93417937  0.68150038  0.59740151    -0.13560
C12         C  0.97232447  0.67123734  0.58590884     0.00090
C13         C  0.99106634  0.63777495  0.60641741    -0.12080
C14         C  0.97258627  0.61868157  0.64082285     0.02590
C15         C  0.93408695  0.63061390  0.65014306    -0.11500
H16         H  0.92000258  0.70776858  0.58442981     0.08180
H17         H  0.02061531  0.62863469  0.59752029     0.05710
H18         H  0.91979331  0.61884074  0.67689275     0.05560
C19         C  0.65860183  0.91302250  0.63187217     0.02590
C20         C  0.62669603  0.93215848  0.65031072    -0.13680
C21         C  0.61573596  0.97058494  0.63897566     0.00090
C22         C  0.63579229  0.98763233  0.60444013    -0.12080
C23         C  0.66934212  0.96764988  0.58561093     0.02590
C24         C  0.67847033  0.92928439  0.59886467    -0.11500
H25         H  0.61403499  0.91904760  0.67728922     0.08180
H26         H  0.62738807  0.01726452  0.59430312     0.05710
H27         H  0.70477496  0.91419217  0.58741475     0.05560
C28         C  0.75460143  0.75202112  0.77474165     0.01750
C29         C  0.78945808  0.73627944  0.75725537     0.01750
C30         C  0.80596540  0.75441753  0.72309947     0.01750
C31         C  0.78867875  0.78966601  0.70772754     0.01750
C32         C  0.75365729  0.80520642  0.72456320     0.01750
C33         C  0.73749726  0.78710253  0.75903004     0.01750
C34         C  0.39770618  0.40231642  0.87741951     0.02590
C35         C  0.42996374  0.38249998  0.89521500    -0.13560
C36         C  0.44317613  0.39344739  0.93464237     0.00090
C37         C  0.42385046  0.42707520  0.95444427    -0.12080
C38         C  0.39038048  0.44685543  0.93570317     0.02590
C39         C  0.38047356  0.43585064  0.89596953    -0.11500
H40         H  0.44120168  0.35543736  0.88022301     0.08180
H41         H  0.43376596  0.43670165  0.98431079     0.05710
H42         H  0.35466820  0.44956566  0.88130713     0.05560
C43         C  0.91042685  0.40124052  0.37082771     0.02590
C44         C  0.92933018  0.43013513  0.34749486    -0.13560
C45         C  0.96640968  0.44627043  0.36005085     0.00090
C46         C  0.98424991  0.43065266  0.39691164    -0.12080
C47         C  0.96493188  0.39843983  0.41839804     0.02590
C48         C  0.92604925  0.38864082  0.40747649    -0.11500
H49         H  0.91610527  0.43782695  0.31822345     0.08180
H50         H  0.01226372  0.44275140  0.40815863     0.05710
H51         H  0.91024008  0.36502666  0.42353861     0.05560
C52         C  0.39347843  0.91683985  0.37090411     0.02590
C53         C  0.42445556  0.93333004  0.34880030    -0.13560
C54         C  0.44341142  0.96902207  0.36243709     0.00090
C55         C  0.42848886  0.98825335  0.39913376    -0.12080
C56         C  0.39384038  0.97202713  0.41914658     0.02590
C57         C  0.38056043  0.93409997  0.40679667    -0.11500
H58         H  0.43211834  0.91929117  0.31982639     0.08180
H59         H  0.44338763  0.01468349  0.41136905     0.05710
H60         H  0.35533093  0.92007816  0.42184774     0.05560
C61         C  0.89860562  0.88991623  0.38427038     0.02590
C62         C  0.93555528  0.87923775  0.39916634    -0.13560
C63         C  0.94901629  0.89420158  0.43629732     0.00090
C64         C  0.92859862  0.92886646  0.45326358    -0.12080
C65         C  0.89063735  0.94178186  0.43601255     0.02590
C66         C  0.87620685  0.92067771  0.40162397    -0.11500
H67         H  0.95082405  0.85412504  0.38442321     0.08180
H68         H  0.94177153  0.94535329  0.47842464     0.05710
H69         H  0.84645887  0.92641202  0.38957201     0.05560
C70         C  0.89048055  0.94261855  0.56878064     0.02590
C71         C  0.87107499  0.91945474  0.59683052    -0.13560
C72         C  0.88678812  0.88327868  0.60881707     0.00090
C73         C  0.92226478  0.86837777  0.59515588    -0.12080
C74         C  0.94486582  0.88986504  0.56824497     0.02590
C75         C  0.93000245  0.92926260  0.55656538    -0.11500
H76         H  0.84211448  0.92814040  0.60839397     0.08180
H77         H  0.93151441  0.83893299  0.60559180     0.05710
H78         H  0.94903236  0.94926756  0.54014646     0.05560
C79         C  0.89108685  0.42359543  0.85866235     0.02590
C80         C  0.87950922  0.43578347  0.89683903    -0.13560
C81         C  0.89426550  0.47110768  0.91419776     0.00090
C82         C  0.92886092  0.48936529  0.89557845    -0.12080
C83         C  0.94151586  0.47545674  0.85562482     0.02590
C84         C  0.92104309  0.44256398  0.83775949    -0.11500
H85         H  0.85483590  0.41966093  0.91078110     0.08180
H86         H  0.94536582  0.51286005  0.91148727     0.05710
H87         H  0.92764099  0.43174241  0.80712252     0.05560
C88         C  0.88911426  0.59476389  0.91428626     0.02590
C89         C  0.86613960  0.61704925  0.88780351    -0.13560
C90         C  0.88178764  0.63147452  0.85269802     0.00090
C91         C  0.91984675  0.62335413  0.84018845    -0.12080
C92         C  0.94512285  0.59974176  0.86311743     0.02590
C93         C  0.93078154  0.58786485  0.90304129    -0.11500
H94         H  0.83541041  0.62473230  0.89448742     0.08180
H95         H  0.92935772  0.63578638  0.81153890     0.05710
H96         H  0.95118401  0.57439089  0.92453532     0.05560
C97         C  0.11637409  0.88643473  0.43054630     0.02590
C98         C  0.13906145  0.91862659  0.45202537    -0.13560
C99         C  0.17328186  0.93858369  0.43372428     0.00090
C100        C  0.18421619  0.92386431  0.39554097    -0.12080
C101        C  0.16148764  0.89304855  0.37576270     0.02590
C102        C  0.12574774  0.87866764  0.39053955    -0.11500
H103        H  0.13112582  0.92703120  0.48261032     0.08180
H104        H  0.21240030  0.93345833  0.38279421     0.05710
H105        H  0.10986525  0.85468626  0.37324161     0.05560
C106        C  0.13120725  0.86895122  0.57257742     0.02590
C107        C  0.14714361  0.90815114  0.56076461    -0.13560
C108        C  0.19003357  0.91560877  0.56172168     0.00090
C109        C  0.21386743  0.88324049  0.56947279    -0.12080
C110        C  0.19832600  0.85021199  0.58864751     0.02590
C111        C  0.15766033  0.84209633  0.59000637    -0.11500
H112        H  0.12702444  0.93119839  0.55020950     0.08180
H113        H  0.24636296  0.88716591  0.56904574     0.05710
H114        H  0.14711158  0.81456344  0.60392328     0.05560
O115        O  0.06072944  0.73809336  0.59047209    -0.80670
O116        O  0.06810295  0.82888159  0.42591673    -0.80700
O117        O  0.10120531  0.72188044  0.45620215    -0.80700
O118        O  0.07845499  0.85757737  0.52428078    -0.80650
O119        O  0.06017790  0.74127410  0.40821431    -0.80770
O120        O  0.07346295  0.82294390  0.57988859    -0.80690
O121        O  0.07730158  0.85979682  0.48513376    -0.80670
O122        O  0.10084713  0.72241179  0.54149190    -0.80710
C123        C  0.08893699  0.71663347  0.57734520     1.09020
C124        C  0.08568855  0.85720839  0.44784996     1.08900
C125        C  0.08881499  0.71864853  0.41949366     1.09040
C126        C  0.09136636  0.85048344  0.55973321     1.08920
O127        O  0.98412323  0.82801553  0.55972020    -0.80670
O128        O  0.98285219  0.73951648  0.43943063    -0.80750
O129        O  0.02292589  0.68787555  0.53834381    -0.80680
O130        O  0.00514567  0.88261233  0.48221120    -0.80660
O131        O  0.98179463  0.82930227  0.44671869    -0.80720
O132        O  0.98414473  0.73829860  0.55727316    -0.80680
O133        O  0.00523380  0.88241020  0.52872047    -0.80640
O134        O  0.02221243  0.68853482  0.45383522    -0.80710
Co135      Co  0.02736329  0.78198956  0.56404738     1.51530
Co136      Co  0.02535480  0.78423138  0.43742585     1.51690
Co137      Co  0.06046736  0.71172415  0.49769912     1.51570
Co138      Co  0.02728358  0.83263864  0.50410789     1.51470
O139        O  0.04436299  0.77485888  0.50031881    -1.42610
C140        C  0.98071940  0.86666237  0.55278316     1.08950
C141        C  0.99161792  0.70176100  0.43527742     1.09040
C142        C  0.99341903  0.70052240  0.55820021     1.08970
C143        C  0.98085493  0.86824080  0.45533702     1.08950
C144        C  0.38236300  0.61429694  0.93020307     0.02590
C145        C  0.36739205  0.63031493  0.89509987    -0.13560
C146        C  0.38055136  0.66761839  0.88292369     0.00090
C147        C  0.41337406  0.68828573  0.90081574    -0.12080
C148        C  0.43332621  0.67257176  0.93442632     0.02590
C149        C  0.41749235  0.63434448  0.94937514    -0.11500
H150        H  0.34084957  0.61689490  0.88001891     0.08180
H151        H  0.42126706  0.71808492  0.89003845     0.05710
H152        H  0.43118805  0.62130775  0.97609234     0.05560
C153        C  0.38394150  0.96348732  0.58665120     0.02590
C154        C  0.37495498  0.92626633  0.60402685    -0.13560
C155        C  0.40002778  0.91111391  0.63486083     0.00090
C156        C  0.43536136  0.93041256  0.64742084    -0.12080
C157        C  0.44323484  0.96937128  0.63633698     0.02590
C158        C  0.41949289  0.98499138  0.60283151    -0.11500
H159        H  0.34672691  0.91082732  0.59651841     0.08180
H160        H  0.45291085  0.91775384  0.67223442     0.05710
H161        H  0.42819346  0.01348734  0.59000560     0.05560
C162        C  0.29477959  0.80083609  0.70682640     0.01750
C163        C  0.32261943  0.81125513  0.73831756     0.01750
C164        C  0.31901318  0.79292794  0.77627464     0.01750
C165        C  0.28953077  0.76338007  0.78207290     0.01750
C166        C  0.25937951  0.75639697  0.75250784     0.01750
C167        C  0.26435851  0.77152951  0.71308741     0.01750
C168        C  0.16789394  0.65833872  0.62721928     0.02590
C169        C  0.14589384  0.67408520  0.59523516    -0.13560
C170        C  0.10608481  0.68273257  0.60208790     0.00090
C171        C  0.08663835  0.66102357  0.63408078    -0.12080
C172        C  0.10861960  0.63200347  0.65795097     0.02590
C173        C  0.15001712  0.63088016  0.65307881    -0.11500
H174        H  0.16192136  0.69164007  0.57304657     0.08180
H175        H  0.05639704  0.66839575  0.64212363     0.05710
H176        H  0.16849130  0.61607493  0.67569389     0.05560
O177        O  0.98409346  0.59061558  0.70914678    -0.80670
O178        O  0.97075130  0.49135762  0.79061115    -0.80700
O179        O  0.02289082  0.48946896  0.65707967    -0.80700
O180        O  0.01458222  0.57598020  0.85729774    -0.80650
O181        O  0.97996425  0.47782936  0.70566054    -0.80770
O182        O  0.98231889  0.58895686  0.79998321    -0.80690
O183        O  0.00523196  0.50885383  0.84380662    -0.80670
O184        O  0.02490518  0.57304754  0.65978147    -0.80710
C185        C  0.99423966  0.59192131  0.67138765     1.09020
C186        C  0.97364424  0.49325188  0.82938263     1.08900
C187        C  0.99092351  0.47312594  0.66846656     1.09040
C188        C  0.98295329  0.58840963  0.84002212     1.08920
O189        O  0.07275850  0.61127872  0.79810337    -0.80670
O190        O  0.05420996  0.44298778  0.71878097    -0.80750
O191        O  0.10278409  0.57144550  0.69749739    -0.80680
O192        O  0.07708169  0.51879675  0.83111373    -0.80660
O193        O  0.05504699  0.45966877  0.80555319    -0.80720
O194        O  0.06228360  0.62050824  0.71208891    -0.80680
O195        O  0.08620525  0.55471923  0.82740256    -0.80640
O196        O  0.09800901  0.48401373  0.69085794    -0.80710
Co197      Co  0.02658970  0.59559133  0.75475237     1.51530
Co198      Co  0.01697426  0.47344873  0.75522882     1.51690
Co199      Co  0.06078527  0.53016287  0.68374984     1.51570
Co200      Co  0.03093650  0.54873328  0.80650927     1.51470
O201        O  0.04149355  0.53159918  0.74721591    -1.42610
C202        C  0.09536772  0.59131024  0.82290102     1.08950
C203        C  0.08247411  0.44872513  0.69409265     1.09040
C204        C  0.09156343  0.60745979  0.69197136     1.08970
C205        C  0.07778664  0.48032567  0.83152724     1.08950
C206        C  0.10586853  0.46160516  0.86282705     0.02590
C207        C  0.13029102  0.48435675  0.89288807    -0.13560
C208        C  0.16571955  0.46741170  0.91189723     0.00090
C209        C  0.17326390  0.42704545  0.90215467    -0.12080
C210        C  0.14824502  0.40513125  0.87435751     0.02590
C211        C  0.11299756  0.42075031  0.85829440    -0.11500
H212        H  0.12215476  0.51501333  0.90051094     0.08180
H213        H  0.20128053  0.41387579  0.91216995     0.05710
H214        H  0.09621673  0.40307336  0.83512903     0.05560
C215        C  0.16933199  0.66961324  0.85984565     0.02590
C216        C  0.13314691  0.65172028  0.84754366    -0.13560
C217        C  0.12909378  0.61012496  0.84864116     0.00090
C218        C  0.15888010  0.58846573  0.87183991    -0.12080
C219        C  0.19111366  0.60963366  0.89374876     0.02590
C220        C  0.19517623  0.65105048  0.88756515    -0.11500
H221        H  0.11302141  0.66857130  0.82805688     0.08180
H222        H  0.15903248  0.55605779  0.87044030     0.05710
H223        H  0.22241144  0.66682761  0.89802189     0.05560
C224        C  0.41451957  0.89556979  0.87012762     0.02590
C225        C  0.43125716  0.92624478  0.84751629    -0.13560
C226        C  0.46551625  0.94661716  0.86195988     0.00090
C227        C  0.48360426  0.93191861  0.89958075    -0.12080
C228        C  0.46721124  0.89672800  0.91966040     0.02590
C229        C  0.42982321  0.88384446  0.90702818    -0.11500
H230        H  0.41812924  0.93292486  0.81793877     0.08180
H231        H  0.50859173  0.94789237  0.91300851     0.05710
H232        H  0.41499550  0.85911030  0.92239791     0.05560
C233        C  0.59487377  0.88807578  0.91157909     0.02590
C234        C  0.58295828  0.92816503  0.89858897    -0.13560
C235        C  0.59169800  0.94188051  0.85766856     0.00090
C236        C  0.61619282  0.91759964  0.83446562    -0.12080
C237        C  0.63037854  0.88198994  0.84911727     0.02590
C238        C  0.62017360  0.86700650  0.88628213    -0.11500
H239        H  0.56921769  0.94831487  0.92014688     0.08180
H240        H  0.62537758  0.92620070  0.80428805     0.05710
H241        H  0.63208661  0.83793941  0.89486126     0.05560
C242        C  0.10670538  0.62299964  0.34617955     0.02590
C243        C  0.08571183  0.65304142  0.37049677    -0.13560
C244        C  0.10677408  0.68683259  0.39091626     0.00090
C245        C  0.14688679  0.69200782  0.38168492    -0.12080
C246        C  0.16442547  0.66577685  0.35339241     0.02590
C247        C  0.14745648  0.62861063  0.34249631    -0.11500
H248        H  0.05388888  0.65200795  0.37113732     0.08180
H249        H  0.16218738  0.72006954  0.39085859     0.05710
H250        H  0.16393794  0.60865527  0.32233114     0.05560
C251        C  0.29196231  0.81747678  0.28160463     0.01750
C252        C  0.25629243  0.79429923  0.28004103     0.01750
C253        C  0.25175587  0.76228370  0.25155691     0.01750
C254        C  0.27922954  0.75801227  0.22003827     0.01750
C255        C  0.31619291  0.77927959  0.22289178     0.01750
C256        C  0.32105546  0.81152499  0.25157317     0.01750
C257        C  0.37576911  0.62617950  0.07706630     0.02590
C258        C  0.37619616  0.63344929  0.11907142    -0.13560
C259        C  0.40073189  0.66438729  0.13592319     0.00090
C260        C  0.43269289  0.67971246  0.11468166    -0.12080
C261        C  0.42855562  0.68147117  0.07275853     0.02590
C262        C  0.40015910  0.65323794  0.05313972    -0.11500
H263        H  0.35360739  0.61948893  0.13756528     0.08180
H264        H  0.45284285  0.70132809  0.13052771     0.05710
H265        H  0.39502094  0.65415968  0.02082240     0.05560
O266        O  0.35658029  0.57603040  0.98533902    -0.80670
O267        O  0.22523525  0.60206165  0.04218121    -0.80700
O268        O  0.24152931  0.55908908  0.90921287    -0.80700
O269        O  0.32279968  0.57240425  0.08030168    -0.80650
O270        O  0.22637907  0.60237736  0.95759776    -0.80770
O271        O  0.35320698  0.58102823  0.02311539    -0.80690
O272        O  0.23793776  0.56040816  0.09052626    -0.80670
O273        O  0.32817980  0.56230771  0.92553050    -0.80710
C274        C  0.35520139  0.58184718  0.94739938     1.09020
C275        C  0.21829954  0.58994419  0.07763924     1.08900
C276        C  0.22213504  0.59008591  0.92095587     1.09040
C277        C  0.34858960  0.59237723  0.05961327     1.08920
O278        O  0.38004139  0.50615992  0.03255419    -0.80670
O279        O  0.18750352  0.52457518  0.95440852    -0.80750
O280        O  0.32415399  0.47587177  0.94809151    -0.80680
O281        O  0.23678593  0.48308336  0.05714095    -0.80660
O282        O  0.18803984  0.52380006  0.03829070    -0.80720
O283        O  0.37661548  0.50371942  0.98008409    -0.80680
O284        O  0.32487653  0.48184046  0.05848047    -0.80640
O285        O  0.23469114  0.48069393  0.93963598    -0.80710
Co286      Co  0.33040512  0.52682759  0.00778441     1.51530
Co287      Co  0.21273923  0.56189318  0.99829698     1.51690
Co288      Co  0.28178931  0.52133250  0.93745785     1.51570
Co289      Co  0.28063778  0.52622829  0.06387050     1.51470
O290        O  0.27347931  0.54214855  0.99979127    -1.42610
C291        C  0.36359038  0.47977468  0.05418091     1.08950
C292        C  0.19770595  0.49172211  0.93705155     1.09040
C293        C  0.36275257  0.47702276  0.95542527     1.08970
C294        C  0.19954310  0.49293339  0.05721489     1.08950
O295        O  0.01129519  0.50202690  0.34700192    -0.80670
O296        O  0.07060771  0.52604410  0.15346242    -0.80700
O297        O  0.97416380  0.48284725  0.20302654    -0.80700
O298        O  0.08614647  0.47731143  0.29062304    -0.80650
O299        O  0.98753839  0.52451666  0.15316371    -0.80770
O300        O  0.06006475  0.50067944  0.34711939    -0.80690
O301        O  0.08595039  0.48318881  0.20170958    -0.80670
O302        O  0.97652431  0.47803590  0.29360956    -0.80710
C303        C  0.98509176  0.47729171  0.33265833     1.09020
C304        C  0.08796036  0.49414147  0.16440362     1.08900
C305        C  0.97074062  0.49247637  0.16518868     1.09040
C306        C  0.08032052  0.47340120  0.32954711     1.08920
O307        O  0.05233085  0.57807592  0.32481786    -0.80670
O308        O  0.98748263  0.60277246  0.19113099    -0.80750
O309        O  0.95662749  0.56550224  0.29616423    -0.80680
O310        O  0.11888432  0.56129938  0.20771369    -0.80660
O311        O  0.07194962  0.60398562  0.19245993    -0.80720
O312        O  0.01478381  0.57476389  0.32752200    -0.80680
O313        O  0.10829725  0.56801778  0.29360013    -0.80640
O314        O  0.94102288  0.55948250  0.20782684    -0.80710
Co315      Co  0.03492361  0.52537838  0.29858327     1.51530
Co316      Co  0.02954659  0.56288241  0.17899617     1.51690
Co317      Co  0.96935620  0.52362534  0.24975970     1.51570
Co318      Co  0.09256821  0.52437190  0.24846999     1.51470
O319        O  0.03076808  0.54355469  0.24147524    -1.42610
C320        C  0.08837617  0.58835457  0.32023213     1.08950
C321        C  0.95172954  0.58956260  0.18690632     1.09040
C322        C  0.97795794  0.58300714  0.32507131     1.08970
C323        C  0.10754656  0.59194317  0.18833573     1.08950
C324        C  0.16920676  0.47103472  0.08291706     0.02590
C325        C  0.13571043  0.49063024  0.10191221    -0.13560
C326        C  0.11383298  0.47165951  0.13392057     0.00090
C327        C  0.12214705  0.43149994  0.14152246    -0.12080
C328        C  0.15454856  0.41254777  0.12320778     0.02590
C329        C  0.17730337  0.43153063  0.09381421    -0.11500
H330        H  0.12860148  0.52125236  0.09390445     0.08180
H331        H  0.10725903  0.41659387  0.16628493     0.05710
H332        H  0.20386078  0.41677351  0.08256810     0.05560
C333        C  0.88641067  0.45706288  0.08508205     0.02590
C334        C  0.92106248  0.48018483  0.10102100    -0.13560
C335        C  0.94451869  0.46672954  0.13567075     0.00090
C336        C  0.93702594  0.42811298  0.14839756    -0.12080
C337        C  0.90229937  0.40765710  0.13583354     0.02590
C338        C  0.87795085  0.42046648  0.10346187    -0.11500
H339        H  0.92906278  0.50835009  0.08709771     0.08180
H340        H  0.95403766  0.41679865  0.17425633     0.05710
H341        H  0.85009647  0.40427950  0.09603451     0.05560
C342        C  0.87746390  0.60498991  0.09297586     0.02590
C343        C  0.90200983  0.58465591  0.12300726    -0.13560
C344        C  0.92374946  0.60727285  0.15496541     0.00090
C345        C  0.91511216  0.64819998  0.15907976    -0.12080
C346        C  0.88647467  0.66503775  0.13296880     0.02590
C347        C  0.87594476  0.64661211  0.09605528    -0.11500
H348        H  0.90149037  0.55237855  0.12398346     0.08180
H349        H  0.92480095  0.66446786  0.18669551     0.05710
H350        H  0.85638934  0.66278338  0.07539460     0.05560
O351        O  0.73940391  0.61505021  0.03061527    -0.80670
O352        O  0.83021430  0.45135297  0.03308508    -0.80700
O353        O  0.71285109  0.47974954  0.06418990    -0.80700
O354        O  0.85299185  0.54831941  0.05231712    -0.80650
O355        O  0.74439032  0.43824512  0.02313643    -0.80770
O356        O  0.82450909  0.60549672  0.03937987    -0.80690
O357        O  0.85595737  0.51081405  0.04878214    -0.80670
O358        O  0.72098090  0.56579271  0.06981465    -0.80710
C359        C  0.71771973  0.60218553  0.05897313     1.09020
C360        C  0.85611238  0.47311171  0.05405501     1.08900
C361        C  0.71661859  0.44462409  0.04838259     1.09040
C362        C  0.85000402  0.58546795  0.06062479     1.08920
O363        O  0.82597348  0.58272950  0.95005188    -0.80670
O364        O  0.73954731  0.46705300  0.94651578    -0.80750
O365        O  0.68748856  0.56815513  0.99033268    -0.80680
O366        O  0.88175186  0.50982947  0.97634683    -0.80660
O367        O  0.82937345  0.47928820  0.94637273    -0.80720
O368        O  0.73715910  0.58460757  0.95058851    -0.80680
O369        O  0.88060936  0.55892046  0.97822272    -0.80640
O370        O  0.68816605  0.48457977  0.98445467    -0.80710
Co371      Co  0.78151278  0.58971800  0.99434072     1.51530
Co372      Co  0.78534998  0.46598309  0.98947018     1.51690
Co373      Co  0.71000321  0.52506792  0.02594956     1.51570
Co374      Co  0.83132013  0.53128566  0.99762323     1.51470
O375        O  0.77363889  0.52682624  0.01162079    -1.42610
C376        C  0.86505135  0.57977458  0.95029860     1.08950
C377        C  0.70196347  0.46357261  0.95548998     1.09040
C378        C  0.69988098  0.58677348  0.95995726     1.08970
C379        C  0.86803500  0.48681352  0.94786230     1.08950
C380        C  0.61589793  0.95976945  0.35193908     0.02590
C381        C  0.63413523  0.92456346  0.33860924    -0.13560
C382        C  0.66702622  0.91027641  0.36006181     0.00090
C383        C  0.68224958  0.92863434  0.39566050    -0.12080
C384        C  0.66902554  0.96589133  0.40828820     0.02590
C385        C  0.63292974  0.98029562  0.38828046    -0.11500
H386        H  0.62495449  0.90979218  0.30989814     0.08180
H387        H  0.70885833  0.91619458  0.41004524     0.05710
H388        H  0.61869228  0.00709215  0.40020251     0.05560
C389        C  0.96148586  0.61508313  0.35392695     0.02590
C390        C  0.92500756  0.62988120  0.34220285    -0.13560
C391        C  0.91245045  0.66673554  0.35749096     0.00090
C392        C  0.93259411  0.68816061  0.38894911    -0.12080
C393        C  0.96798033  0.67337187  0.40563651     0.02590
C394        C  0.98192487  0.63509003  0.38863129    -0.11500
H395        H  0.90857838  0.61595446  0.31636689     0.08180
H396        H  0.92199628  0.71787975  0.39799061     0.05710
H397        H  0.00835503  0.62146161  0.40155447     0.05560
C398        C  0.77164914  0.81149180  0.28545522     0.01750
C399        C  0.80516323  0.78631460  0.28822849     0.01750
C400        C  0.80881133  0.75340219  0.26083590     0.01750
C401        C  0.78037529  0.74734520  0.22915817     0.01750
C402        C  0.74542379  0.77043199  0.22840793     0.01750
C403        C  0.74381997  0.80576722  0.25288814     0.01750
C404        C  0.65701878  0.65655847  0.13647839     0.02590
C405        C  0.68056356  0.62732971  0.11812690    -0.13560
C406        C  0.68505085  0.62793525  0.07605373     0.00090
C407        C  0.66218350  0.65724358  0.05357711    -0.12080
C408        C  0.63161908  0.68043648  0.07345174     0.02590
C409        C  0.62592919  0.67376875  0.11452908    -0.11500
H410        H  0.70235212  0.61161504  0.13671107     0.08180
H411        H  0.66988547  0.66362824  0.02261934     0.05710
H412        H  0.60536535  0.69303295  0.13100520     0.05560
O413        O  0.58880855  0.73490611  0.94835761    -0.80670
O414        O  0.47572938  0.82985321  0.95052913    -0.80700
O415        O  0.48569022  0.68626508  0.98531983    -0.80700
O416        O  0.55899971  0.87925765  0.97499603    -0.80650
O417        O  0.46874478  0.73820387  0.94768803    -0.80770
O418        O  0.58764591  0.82500092  0.94948545    -0.80690
O419        O  0.51311813  0.88104347  0.97547239    -0.80670
O420        O  0.56930739  0.68448643  0.98662785    -0.80710
C421        C  0.58942707  0.69696426  0.95712557     1.09020
C422        C  0.48592768  0.86856165  0.95058555     1.08900
C423        C  0.46509826  0.70024227  0.95603660     1.09040
C424        C  0.58139822  0.86396303  0.94814365     1.08920
O425        O  0.60852294  0.82112713  0.04028044    -0.80670
O426        O  0.43998222  0.73750260  0.02605752    -0.80750
O427        O  0.57136283  0.71879956  0.06658750    -0.80680
O428        O  0.51391550  0.85526121  0.04738715    -0.80660
O429        O  0.45569225  0.82475771  0.03866212    -0.80720
O430        O  0.61985158  0.73531488  0.02697903    -0.80680
O431        O  0.55180600  0.85135724  0.05015669    -0.80640
O432        O  0.48915728  0.72036740  0.06589231    -0.80710
Co433      Co  0.59346946  0.77911668  0.99310089     1.51530
Co434      Co  0.46762514  0.78203687  0.99256507     1.51690
Co435      Co  0.52902563  0.70860915  0.02480012     1.51570
Co436      Co  0.53333112  0.82949958  0.99566433     1.51470
O437        O  0.53051471  0.77148162  0.00988571    -1.42610
C438        C  0.58788544  0.84678018  0.06099170     1.08950
C439        C  0.45329906  0.71484624  0.05390274     1.09040
C440        C  0.60688053  0.71358764  0.05517557     1.08970
C441        C  0.47743117  0.85258632  0.05684057     1.08950
C442        C  0.46207600  0.88078751  0.09032559     0.02590
C443        C  0.42952874  0.86684110  0.11190175    -0.13560
C444        C  0.41560078  0.88967906  0.14464101     0.00090
C445        C  0.43116828  0.92731894  0.15589006    -0.12080
C446        C  0.46659779  0.94065273  0.14028513     0.02590
C447        C  0.48104224  0.91877692  0.10469331    -0.11500
H448        H  0.41672015  0.83696399  0.10527793     0.08180
H449        H  0.41863684  0.94317106  0.18200933     0.05710
H450        H  0.50707937  0.93026566  0.08939986     0.05560
C451        C  0.60195461  0.92690260  0.15231482     0.02590
C452        C  0.64321169  0.92844606  0.15192438    -0.13560
C453        C  0.66249342  0.89468261  0.13695596     0.00090
C454        C  0.64599008  0.87125177  0.10467651    -0.12080
C455        C  0.60512982  0.87350833  0.09583461     0.02590
C456        C  0.58211767  0.89927000  0.12302679    -0.11500
H457        H  0.65910359  0.94777108  0.17446049     0.08180
H458        H  0.66337179  0.84726617  0.09103549     0.05710
H459        H  0.55029432  0.89548096  0.12349105     0.05560
C460        C  0.62986867  0.36431776  0.06974310     0.02590
C461        C  0.64738199  0.40321135  0.05896940    -0.13560
C462        C  0.69060785  0.40820947  0.05781089     0.00090
C463        C  0.71268414  0.37360647  0.06146844    -0.12080
C464        C  0.69693207  0.34153580  0.08208106     0.02590
C465        C  0.65587629  0.33532209  0.08471419    -0.11500
H466        H  0.62816202  0.42803753  0.05114925     0.08180
H467        H  0.74513346  0.37556045  0.05888307     0.05710
H468        H  0.64461621  0.30832636  0.09908317     0.05560
C469        C  0.81401792  0.29600692  0.27780811     0.01750
C470        C  0.78551425  0.26545642  0.28384614     0.01750
C471        C  0.75650253  0.25585454  0.25372761     0.01750
C472        C  0.76196903  0.26963374  0.21379048     0.01750
C473        C  0.79158163  0.29966156  0.20707523     0.01750
C474        C  0.81823577  0.31231300  0.23894789     0.01750
C475        C  0.68601264  0.10654478  0.39421118     0.02590
C476        C  0.65292339  0.08532836  0.37321933    -0.13560
C477        C  0.62309129  0.10663462  0.34941204     0.00090
C478        C  0.62846907  0.14810268  0.34658891    -0.12080
C479        C  0.66480171  0.16588451  0.35879966     0.02590
C480        C  0.69054419  0.14761937  0.38677533    -0.11500
H481        H  0.65234440  0.05310358  0.37311574     0.08180
H482        H  0.60881732  0.16491304  0.32659490     0.05710
H483        H  0.71799010  0.16333219  0.39673392     0.05560
O484        O  0.57417229  0.01313521  0.32865983    -0.80670
O485        O  0.59953147  0.07201532  0.19628950    -0.80700
O486        O  0.55524893  0.94034003  0.20754873    -0.80700
O487        O  0.56883323  0.10853377  0.29704883    -0.80650
O488        O  0.59702745  0.98844639  0.19254523    -0.80770
O489        O  0.57767937  0.05177786  0.32807820    -0.80690
O490        O  0.55905799  0.12058167  0.21157391    -0.80670
O491        O  0.56482018  0.95479920  0.29599191    -0.80710
C492        C  0.58299120  0.97614254  0.32449189     1.09020
C493        C  0.58823791  0.10781986  0.19128720     1.08900
C494        C  0.58384470  0.95274377  0.18591773     1.09040
C495        C  0.58857846  0.08810677  0.32353002     1.08920
O496        O  0.50189602  0.05917851  0.35297865    -0.80670
O497        O  0.51986589  0.98936897  0.15541143    -0.80750
O498        O  0.47756667  0.97603511  0.29695738    -0.80680
O499        O  0.48132469  0.08900979  0.20848576    -0.80660
O500        O  0.52156889  0.07314588  0.15828179    -0.80720
O501        O  0.50185662  0.01051741  0.35074283    -0.80680
O502        O  0.47967504  0.08759817  0.29739647    -0.80640
O503        O  0.48028398  0.97479204  0.20625803    -0.80710
Co504      Co  0.52471238  0.03477258  0.30246709     1.51530
Co505      Co  0.55823560  0.03091513  0.18173588     1.51690
Co506      Co  0.52159757  0.96872204  0.25166132     1.51570
Co507      Co  0.52403236  0.09398303  0.25347676     1.51470
O508        O  0.54112494  0.03104773  0.24458824    -1.42610
C509        C  0.47614031  0.08175952  0.33634692     1.08950
C510        C  0.48944845  0.97085447  0.16828832     1.09040
C511        C  0.47634119  0.98525637  0.33591964     1.08970
C512        C  0.49086351  0.09127721  0.17078912     1.08950
O513        O  0.49622225  0.38034243  0.98368587    -0.80670
O514        O  0.51769974  0.18822991  0.04012198    -0.80700
O515        O  0.48021269  0.24001076  0.94516990    -0.80700
O516        O  0.47984060  0.32816101  0.06556887    -0.80650
O517        O  0.51865786  0.18803872  0.95518532    -0.80770
O518        O  0.49643995  0.38090986  0.02953465    -0.80690
O519        O  0.47919692  0.23857435  0.06016915    -0.80670
O520        O  0.47725724  0.32861726  0.94347061    -0.80710
C521        C  0.47414804  0.36667483  0.95439260     1.09020
C522        C  0.48815584  0.20068720  0.06006499     1.08900
C523        C  0.48984490  0.20361159  0.93580226     1.09040
C524        C  0.47406905  0.36584600  0.05618292     1.08920
O525        O  0.57194617  0.35828840  0.02609169    -0.80670
O526        O  0.59740226  0.22228717  0.95982573    -0.80750
O527        O  0.56449712  0.32732074  0.92798246    -0.80680
O528        O  0.55587863  0.23755814  0.09264395    -0.80660
O529        O  0.59598576  0.22342446  0.04352197    -0.80720
O530        O  0.57013480  0.36092175  0.98619296    -0.80680
O531        O  0.57068407  0.32121583  0.08048576    -0.80640
O532        O  0.55712442  0.24074328  0.91098474    -0.80710
Co533      Co  0.52075579  0.33185164  0.00600467     1.51530
Co534      Co  0.55586286  0.21177994  0.00007288     1.51690
Co535      Co  0.52176798  0.28372777  0.93955443     1.51570
Co536      Co  0.52313920  0.28168648  0.06639537     1.51470
O537        O  0.53987646  0.27500036  0.00254456    -1.42610
C538        C  0.58780113  0.34892863  0.05989289     1.08950
C539        C  0.58576083  0.21856350  0.92304732     1.09040
C540        C  0.58096364  0.35637111  0.94961383     1.08970
C541        C  0.58446687  0.21702233  0.07918351     1.08950
C542        C  0.41046750  0.15979621  0.12987926     0.02590
C543        C  0.42976407  0.12949119  0.15132204    -0.13560
C544        C  0.46842283  0.11827058  0.14145261     0.00090
C545        C  0.48648791  0.13789522  0.10732428    -0.12080
C546        C  0.46700661  0.17072449  0.08688048     0.02590
C547        C  0.42805296  0.17903756  0.09727119    -0.11500
H548        H  0.41591401  0.11756980  0.17823410     0.08180
H549        H  0.51633583  0.12963791  0.09857763     0.05710
H550        H  0.41295613  0.20437653  0.08350721     0.05560
C551        C  0.46368163  0.13021192  0.84091268     0.02590
C552        C  0.47771102  0.14264999  0.88160608    -0.13560
C553        C  0.47457451  0.18420098  0.89587119     0.00090
C554        C  0.45981980  0.21152477  0.86828616    -0.12080
C555        C  0.44196894  0.19860642  0.83178115     0.02590
C556        C  0.44356623  0.15857543  0.81773567    -0.11500
H557        H  0.49221080  0.12087548  0.90092007     0.08180
H558        H  0.45776915  0.24342932  0.87677131     0.05710
H559        H  0.42968147  0.14996285  0.78849369     0.05560
C560        C  0.66336448  0.16424356  0.86109484     0.02590
C561        C  0.64528897  0.12818329  0.84766870    -0.13560
C562        C  0.60424413  0.12310177  0.85041309     0.00090
C563        C  0.58332874  0.15243420  0.87540629    -0.12080
C564        C  0.60422664  0.18640618  0.89556537     0.02590
C565        C  0.64487517  0.19085707  0.88824361    -0.11500
H566        H  0.66188362  0.10842388  0.82741322     0.08180
H567        H  0.55170150  0.14944552  0.87839869     0.05710
H568        H  0.66055273  0.21848253  0.89838209     0.05560
O569        O  0.61911872  0.06140397  0.71130575    -0.80670
O570        O  0.45401391  0.07381291  0.79052789    -0.80700
O571        O  0.48968001  0.10254002  0.69119987    -0.80700
O572        O  0.54902067  0.08004437  0.82656212    -0.80650
O573        O  0.44113443  0.06066852  0.70379443    -0.80770
O574        O  0.60585983  0.06931158  0.79700988    -0.80690
O575        O  0.51036224  0.07881443  0.82603156    -0.80670
O576        O  0.57283323  0.10387850  0.69414058    -0.80710
C577        C  0.60832294  0.09157687  0.69090489     1.09020
C578        C  0.47537285  0.09152627  0.81904620     1.08900
C579        C  0.45444235  0.08974907  0.68322078     1.09040
C580        C  0.58556505  0.08940289  0.82340358     1.08920
O581        O  0.58225749  0.98063967  0.79537978    -0.80670
O582        O  0.47216175  0.98408579  0.70448931    -0.80750
O583        O  0.57237234  0.02546539  0.65609337    -0.80680
O584        O  0.50742416  0.00540260  0.84995163    -0.80660
O585        O  0.47082336  0.98343737  0.79667487    -0.80720
O586        O  0.58580009  0.98364507  0.70577253    -0.80680
O587        O  0.55406973  0.00471867  0.85053656    -0.80640
O588        O  0.48964738  0.02384436  0.65407370    -0.80710
Co589      Co  0.59114987  0.02563711  0.75207953     1.51530
Co590      Co  0.46705728  0.02717328  0.74909673     1.51690
Co591      Co  0.53103269  0.06263826  0.68008571     1.51570
Co592      Co  0.52967725  0.02772805  0.80040397     1.51470
O593        O  0.52977298  0.04473503  0.74267456    -1.42610
C594        C  0.57671193  0.97852321  0.83458199     1.08950
C595        C  0.47050796  0.99322516  0.66630037     1.09040
C596        C  0.58912465  0.99378115  0.66825369     1.08970
C597        C  0.48127166  0.98058867  0.83540774     1.08950
C598        C  0.61391170  0.38312992  0.93243192     0.02590
C599        C  0.63727912  0.41556808  0.95274426    -0.13560
C600        C  0.67322792  0.43252739  0.93457211     0.00090
C601        C  0.68474652  0.41503473  0.89782736    -0.12080
C602        C  0.66149928  0.38402114  0.87923371     0.02590
C603        C  0.62503547  0.37172362  0.89369283    -0.11500
H604        H  0.62840164  0.42654144  0.98230507     0.08180
H605        H  0.71359772  0.42279443  0.88534571     0.05710
H606        H  0.60902025  0.34737514  0.87709314     0.05560
C607        C  0.95761421  0.38836876  0.58756153     0.02590
C608        C  0.98203169  0.42055079  0.60676156    -0.13560
C609        C  0.96640329  0.44709755  0.63823888     0.00090
C610        C  0.92648146  0.44281640  0.64736012    -0.12080
C611        C  0.90596331  0.40793500  0.63486335     0.02590
C612        C  0.91882996  0.38362674  0.60210510    -0.11500
H613        H  0.01287891  0.42386970  0.59843476     0.08180
H614        H  0.91426426  0.46115017  0.67196454     0.05710
H615        H  0.89998891  0.35871078  0.59076781     0.05560
C616        C  0.75978062  0.29170555  0.78185807     0.01750
C617        C  0.78867722  0.32163263  0.77462573     0.01750
C618        C  0.81528133  0.31696154  0.74243726     0.01750
C619        C  0.81741923  0.27892623  0.72277131     0.01750
C620        C  0.78675086  0.24979111  0.72800796     0.01750
C621        C  0.76053222  0.25448435  0.76055148     0.01750
C622        C  0.66980476  0.16754537  0.63483263     0.02590
C623        C  0.64019355  0.15099524  0.65914263    -0.13560
C624        C  0.63524661  0.10896855  0.65935807     0.00090
C625        C  0.66097296  0.08537891  0.63350817    -0.12080
C626        C  0.68499851  0.10486092  0.60354964     0.02590
C627        C  0.68211110  0.14638541  0.60057290    -0.11500
H628        H  0.62796279  0.16921003  0.68369941     0.08180
H629        H  0.66445578  0.05362052  0.63890932     0.05710
H630        H  0.70178128  0.16188499  0.57985943     0.05560
O631        O  0.73677513  0.97866726  0.55779048    -0.80670
O632        O  0.82548079  0.97616379  0.44343246    -0.80700
O633        O  0.68614048  0.02107228  0.45514183    -0.80700
O634        O  0.87937901  0.00069395  0.52639624    -0.80650
O635        O  0.73550046  0.97996016  0.43972810    -0.80770
O636        O  0.82734765  0.98022043  0.56108549    -0.80690
O637        O  0.87770215  0.99951910  0.47986202    -0.80670
O638        O  0.68755571  0.01904109  0.53904451    -0.80710
C639        C  0.69935905  0.98846410  0.55829409     1.09020
C640        C  0.86378453  0.97460806  0.45305884     1.08900
C641        C  0.69816391  0.98973848  0.43661345     1.09040
C642        C  0.86544386  0.97714920  0.55251606     1.08920
O643        O  0.81895464  0.07056250  0.57937260    -0.80670
O644        O  0.73887694  0.05796636  0.40944207    -0.80750
O645        O  0.72346358  0.09800567  0.54291058    -0.80680
O646        O  0.85645636  0.07299781  0.48510764    -0.80660
O647        O  0.82542723  0.06463620  0.42610622    -0.80720
O648        O  0.73635360  0.05588470  0.59086307    -0.80680
O649        O  0.85407098  0.07435499  0.52409848    -0.80640
O650        O  0.72192398  0.09961151  0.45837117    -0.80710
Co651      Co  0.77996993  0.02279732  0.56417602     1.51530
Co652      Co  0.78100696  0.02151798  0.43714365     1.51690
Co653      Co  0.71101640  0.05803086  0.49904906     1.51570
Co654      Co  0.82947937  0.02244469  0.50365515     1.51470
O655        O  0.77264614  0.03982587  0.50042110    -1.42610
C656        C  0.84584775  0.08867182  0.55887304     1.08950
C657        C  0.71777196  0.08760723  0.42158035     1.09040
C658        C  0.71684783  0.08568412  0.57831535     1.08970
C659        C  0.85311540  0.08268888  0.44830452     1.08950
C660        C  0.87880079  0.11727258  0.43268014     0.02590
C661        C  0.91361206  0.13796395  0.45189347    -0.13560
C662        C  0.92971333  0.17580942  0.43600166     0.00090
C663        C  0.90940507  0.19143832  0.40276021    -0.12080
C664        C  0.87619392  0.17092311  0.38581660     0.02590
C665        C  0.86317696  0.13367880  0.39808098    -0.11500
H666        H  0.92724062  0.12547030  0.47875166     0.08180
H667        H  0.91745548  0.22100402  0.39149106     0.05710
H668        H  0.83666954  0.12022531  0.38297311     0.05560
C669        C  0.86281230  0.12976078  0.57058668     0.02590
C670        C  0.90124408  0.14625821  0.55822580    -0.13560
C671        C  0.90878921  0.18941139  0.56110791     0.00090
C672        C  0.87716312  0.21294060  0.57156568    -0.12080
C673        C  0.84626937  0.19675231  0.59352103     0.02590
C674        C  0.83672619  0.15580118  0.59040234    -0.11500
H675        H  0.92377611  0.12633218  0.54632415     0.08180
H676        H  0.88202342  0.24540892  0.57206020     0.05710
H677        H  0.81058472  0.14422225  0.60568762     0.05560
C678        C  0.43036397  0.10801467  0.64878446     0.02590
C679        C  0.40099361  0.08795297  0.62172132    -0.13560
C680        C  0.37513951  0.11097408  0.59509723     0.00090
C681        C  0.37515566  0.15269697  0.60201076    -0.12080
C682        C  0.40020315  0.16995733  0.63255938     0.02590
C683        C  0.43318352  0.14973488  0.64736724    -0.11500
H684        H  0.39533689  0.05614316  0.62441565     0.08180
H685        H  0.35164742  0.17068724  0.58857614     0.05710
H686        H  0.45309345  0.16588589  0.66908289     0.05560
C687        C  0.28685298  0.31413975  0.78694157     0.01750
C688        C  0.24591067  0.30358869  0.78007658     0.01750
C689        C  0.23508192  0.27056108  0.75396414     0.01750
C690        C  0.26505315  0.24499656  0.73862989     0.01750
C691        C  0.30580354  0.25758717  0.74322558     0.01750
C692        C  0.31666352  0.28855089  0.77150753     0.01750
O693        O  0.37942761  0.01830037  0.47559082    -0.80670
O694        O  0.18504201  0.07456896  0.49092918    -0.80700
O695        O  0.23866257  0.97395053  0.44720366    -0.80700
O696        O  0.32211326  0.09330036  0.45058847    -0.80650
O697        O  0.18669832  0.99060921  0.48459264    -0.80770
O698        O  0.37673099  0.06590687  0.47525675    -0.80690
O699        O  0.23437954  0.09321423  0.45181047    -0.80670
O700        O  0.32803786  0.98409161  0.44811820    -0.80710
C701        C  0.36656381  0.99204587  0.44958628     1.09020
C702        C  0.19705300  0.09381500  0.46078353     1.08900
C703        C  0.20109893  0.96987884  0.45561388     1.09040
C704        C  0.36060777  0.08744701  0.44807002     1.08920
O705        O  0.35098608  0.05630963  0.55154585    -0.80670
O706        O  0.21090083  0.98715521  0.56531586    -0.80750
O707        O  0.32713769  0.95901538  0.53555702    -0.80680
O708        O  0.23529291  0.12253876  0.53292046    -0.80660
O709        O  0.21762396  0.07219703  0.57092098    -0.80720
O710        O  0.35523679  0.01808589  0.54824703    -0.80680
O711        O  0.32100821  0.11361330  0.54202717    -0.80640
O712        O  0.24184372  0.94538242  0.52428538    -0.80710
Co713      Co  0.32859933  0.03848029  0.49722282     1.51530
Co714      Co  0.20767964  0.03171862  0.52654590     1.51690
Co715      Co  0.28327202  0.97307568  0.49107338     1.51570
Co716      Co  0.27817700  0.09812268  0.49614398     1.51470
O717        O  0.27130632  0.03449946  0.51257080    -1.42610
C718        C  0.34697270  0.09296756  0.56207368     1.08950
C719        C  0.21449883  0.95197728  0.54989462     1.09040
C720        C  0.35409102  0.98052937  0.55526610     1.08970
C721        C  0.21385048  0.10882220  0.56118165     1.08950
O722        O  0.00924944  0.36068945  0.54551611    -0.80670
O723        O  0.06368537  0.21857697  0.57155400    -0.80700
O724        O  0.93779084  0.24326087  0.52512370    -0.80700
O725        O  0.10168518  0.32195593  0.54715906    -0.80650
O726        O  0.97954385  0.21101983  0.56464918    -0.80770
O727        O  0.04760427  0.35813637  0.54861270    -0.80690
O728        O  0.11325803  0.23797754  0.53403053    -0.80670
O729        O  0.95138289  0.32955368  0.53792658    -0.80710
C730        C  0.97289649  0.35797006  0.55546304     1.09020
C731        C  0.10017005  0.21606221  0.56213619     1.08900
C732        C  0.94464617  0.21471794  0.54950782     1.09040
C733        C  0.08085856  0.34953255  0.56468616     1.08920
O734        O  0.05556483  0.38159142  0.47234908    -0.80670
O735        O  0.98411983  0.18812658  0.48394674    -0.80750
O736        O  0.97264353  0.33214957  0.44946999    -0.80680
O737        O  0.08559604  0.23906539  0.45272750    -0.80660
O738        O  0.06727534  0.18814370  0.49034822    -0.80720
O739        O  0.01073511  0.38303478  0.47322921    -0.80680
O740        O  0.08619598  0.32614160  0.45391600    -0.80640
O741        O  0.96618129  0.24122169  0.44837061    -0.80710
Co742      Co  0.03051542  0.33244755  0.49560259     1.51530
Co743      Co  0.02418816  0.20959591  0.52617431     1.51690
Co744      Co  0.96477979  0.28599519  0.49255792     1.51570
Co745      Co  0.08917013  0.28156790  0.49854582     1.51470
O746        O  0.02595139  0.27457404  0.51333988    -1.42610
C747        C  0.07813566  0.36385609  0.44721298     1.08950
C748        C  0.96248112  0.20307580  0.45623797     1.09040
C749        C  0.98312285  0.37048277  0.44901963     1.08970
C750        C  0.08659655  0.20125975  0.46077769     1.08950
C751        C  0.15132964  0.15765232  0.37816947     0.02590
C752        C  0.12113763  0.17898447  0.39766962    -0.13560
C753        C  0.11296273  0.17184120  0.43818366     0.00090
C754        C  0.13415146  0.13969357  0.45775190    -0.12080
C755        C  0.16671693  0.11934258  0.43828795     0.02590
C756        C  0.17297695  0.12740947  0.39767309    -0.11500
H757        H  0.10752679  0.20445164  0.38267941     0.08180
H758        H  0.12688506  0.13221068  0.48857015     0.05710
H759        H  0.19830965  0.11391235  0.38252169     0.05560
C760        C  0.10515401  0.34001147  0.67444618     0.02590
C761        C  0.10349233  0.37852076  0.69228961    -0.13560
C762        C  0.09413610  0.41180872  0.66909034     0.00090
C763        C  0.08731530  0.40472955  0.62559771    -0.12080
C764        C  0.08902327  0.36398071  0.60800402     0.02590
C765        C  0.09402991  0.33232714  0.63426628    -0.11500
H766        H  0.11193367  0.38285028  0.72431619     0.08180
H767        H  0.08032405  0.42988272  0.60633873     0.05710
H768        H  0.09575527  0.30142221  0.62220825     0.05560
C769        C  0.12653996  0.18473709  0.58119499     0.02590
C770        C  0.12481699  0.18048531  0.62347146    -0.13560
C771        C  0.15448782  0.15841346  0.64329619     0.00090
C772        C  0.17485218  0.12854066  0.62161031    -0.12080
C773        C  0.18142297  0.13388057  0.58035627     0.02590
C774        C  0.15761141  0.16344190  0.55997797    -0.11500
H775        H  0.10729395  0.20166942  0.64121616     0.08180
H776        H  0.19491230  0.10899039  0.63829745     0.05710
H777        H  0.16416356  0.17095691  0.52900026     0.05560
C778        C  0.60233669  0.18335734  0.10303298     0.02590
C779        C  0.58311132  0.16142159  0.13463348    -0.13560
C780        C  0.60511580  0.13208756  0.15755578     0.00090
C781        C  0.64633039  0.12994157  0.15184186    -0.12080
C782        C  0.66438627  0.15776097  0.12663837     0.02590
C783        C  0.64218249  0.17505674  0.09565293    -0.11500
H784        H  0.55290933  0.16870178  0.14297503     0.08180
H785        H  0.66481613  0.11417227  0.17375323     0.05710
H786        H  0.65807782  0.19330164  0.07392732     0.05560
C787        C  0.18525095  0.60817850  0.10223493     0.02590
C788        C  0.17953668  0.64928085  0.09788359    -0.13560
C789        C  0.16482666  0.67065077  0.13109542     0.00090
C790        C  0.13617222  0.65263787  0.15554159    -0.12080
C791        C  0.13419392  0.61042135  0.15704817     0.02590
C792        C  0.16199683  0.58801532  0.13239799    -0.11500
H793        H  0.19845069  0.66544833  0.07697714     0.08180
H794        H  0.12224263  0.67063629  0.17925626     0.05710
H795        H  0.16712448  0.55655078  0.13839236     0.05560
C796        C  0.37598412  0.38288463  0.10835533     0.02590
C797        C  0.36303476  0.41984905  0.09544950    -0.13560
C798        C  0.38587421  0.44344839  0.07032633     0.00090
C799        C  0.42546639  0.42906245  0.06072435    -0.12080
C800        C  0.43793181  0.38879381  0.07196627     0.02590
C801        C  0.41246507  0.36706851  0.09693313    -0.11500
H802        H  0.33353855  0.42943746  0.10471853     0.08180
H803        H  0.44608321  0.44864086  0.04530362     0.05710
H804        H  0.41997644  0.33689744  0.10659289     0.05560
C805        C  0.37671413  0.13132382  0.34453215     0.02590
C806        C  0.41369964  0.11858919  0.33248900    -0.13560
C807        C  0.43839508  0.09645994  0.35775785     0.00090
C808        C  0.42397113  0.08915370  0.39863240    -0.12080
C809        C  0.38335591  0.09984117  0.41002237     0.02590
C810        C  0.36113908  0.12188100  0.38198371    -0.11500
H811        H  0.42288843  0.12675154  0.30219341     0.08180
H812        H  0.44378273  0.07663811  0.42123998     0.05710
H813        H  0.33118685  0.13193640  0.38885710     0.05560
C814        C  0.11154909  0.36472808  0.33931722     0.02590
C815        C  0.10636196  0.40365456  0.32541390    -0.13560
C816        C  0.09035485  0.43378398  0.35057069     0.00090
C817        C  0.08353310  0.42340273  0.39278523    -0.12080
C818        C  0.08752128  0.38196186  0.40609728     0.02590
C819        C  0.09960549  0.35349752  0.37733619    -0.11500
H820        H  0.11577106  0.41030088  0.29481638     0.08180
H821        H  0.07577146  0.44689102  0.41460859     0.05710
H822        H  0.10358926  0.32207348  0.38523997     0.05560
C823        C  0.23354876  0.29398297  0.21666387     0.01750
C824        C  0.27006710  0.28520033  0.19750357     0.01750
C825        C  0.29219559  0.25127106  0.20933912     0.01750
C826        C  0.28021673  0.22836062  0.24276718     0.01750
C827        C  0.24372407  0.23687682  0.26175045     0.01750
C828        C  0.22060743  0.27019941  0.24924515     0.01750
C829        C  0.20315003  0.30933119  0.31191894    -0.02380
C830        C  0.18970525  0.28682462  0.27674828     0.07300
C831        C  0.14823053  0.28633740  0.26598546    -0.02500
C832        C  0.12250861  0.31306148  0.28566088    -0.02500
C833        C  0.13736873  0.33718295  0.31817436     0.07430
C834        C  0.17668164  0.33357716  0.33321222    -0.02690
Br835      Br  0.19561198  0.36613926  0.38025162    -0.01240
Br836      Br  0.25879615  0.31592185  0.32689307    -0.01310
Br837      Br  0.06682464  0.31712122  0.26864467    -0.01270
Br838      Br  0.12391955  0.24839607  0.22781858    -0.01260
C839        C  0.32607468  0.13583737  0.28996959    -0.02380
C840        C  0.35427520  0.15499379  0.31618236     0.07300
C841        C  0.36420206  0.19591644  0.31300341    -0.02500
C842        C  0.34093028  0.21965743  0.28757247    -0.02500
C843        C  0.30964124  0.20156702  0.26291603     0.07430
C844        C  0.30484162  0.15882152  0.26198505    -0.02690
Br845      Br  0.27232937  0.12953822  0.22239589    -0.01240
Br846      Br  0.31745503  0.07782550  0.29250715    -0.01310
Br847      Br  0.34653133  0.27699203  0.29668243    -0.01270
Br848      Br  0.40678827  0.21998272  0.34742221    -0.01260
C849        C  0.33976121  0.37054213  0.17061583    -0.02380
C850        C  0.34763982  0.35919853  0.13037812     0.07300
C851        C  0.32418948  0.32996995  0.10907752    -0.02500
C852        C  0.29429782  0.30921413  0.12946586    -0.02500
C853        C  0.29001663  0.31576266  0.17200231     0.07430
C854        C  0.31181703  0.34811588  0.19191093    -0.02690
Br855      Br  0.31185988  0.35753931  0.24968239    -0.01240
Br856      Br  0.37078378  0.41416752  0.19749419    -0.01310
Br857      Br  0.25951823  0.27447678  0.09694631    -0.01270
Br858      Br  0.33268164  0.31954630  0.05144786    -0.01260
C859        C  0.20363590  0.20444586  0.36063061    -0.02380
C860        C  0.17256785  0.17826262  0.34695940     0.07300
C861        C  0.16808784  0.16641338  0.30593751    -0.02500
C862        C  0.19375542  0.18335122  0.27761857    -0.02500
C863        C  0.22613036  0.20893380  0.29136145     0.07430
C864        C  0.23304515  0.21525887  0.33382498    -0.02690
Br865      Br  0.28402865  0.22807485  0.35935627    -0.01240
Br866      Br  0.20761257  0.22341073  0.41733507    -0.01310
Br867      Br  0.18391851  0.17078712  0.22052392    -0.01270
Br868      Br  0.12612549  0.12835318  0.28913553    -0.01260
C869        C  0.24597035  0.21489777  0.67170117    -0.02380
C870        C  0.25120689  0.20890333  0.71362942     0.07300
C871        C  0.22462842  0.18105957  0.73208615    -0.02500
C872        C  0.19166878  0.16456546  0.70943617    -0.02500
C873        C  0.18175312  0.18082572  0.67140892     0.07430
C874        C  0.20843361  0.20893425  0.65406237    -0.02690
Br875      Br  0.19672672  0.24113592  0.60684500    -0.01240
Br876      Br  0.28867543  0.22435261  0.63486587    -0.01310
Br877      Br  0.15820657  0.12247361  0.73120197    -0.01270
Br878      Br  0.22983429  0.16862255  0.78907133    -0.01260
C879        C  0.20559085  0.30138897  0.69363551    -0.02380
C880        C  0.19920256  0.27678125  0.72758023     0.07300
C881        C  0.15931603  0.26659677  0.73844952    -0.02500
C882        C  0.12735266  0.28639558  0.71978976    -0.02500
C883        C  0.13549444  0.31428560  0.68988043     0.07430
C884        C  0.17398503  0.32026428  0.67492660    -0.02690
Br885      Br  0.18476370  0.35861767  0.63188918    -0.01240
Br886      Br  0.25765955  0.31504527  0.67445467    -0.01310
Br887      Br  0.07251321  0.27724997  0.73552278    -0.01270
Br888      Br  0.14560608  0.22513555  0.77556379    -0.01260
C889        C  0.36032922  0.17343551  0.69506545    -0.02380
C890        C  0.38087536  0.19349078  0.66380345     0.07300
C891        C  0.38369368  0.23546978  0.66334865    -0.02500
C892        C  0.35979572  0.25782192  0.68975839    -0.02500
C893        C  0.33762534  0.23747255  0.72019715     0.07430
C894        C  0.34305254  0.19608405  0.72564992    -0.02690
Br895      Br  0.32640539  0.16914115  0.77381998    -0.01240
Br896      Br  0.34942483  0.11572581  0.69521177    -0.01310
Br897      Br  0.35298356  0.31328557  0.67591916    -0.01270
Br898      Br  0.41542683  0.26117492  0.62218601    -0.01260
C899        C  0.85222943  0.28491509  0.65832464    -0.02380
C900        C  0.85179779  0.26921285  0.69725428     0.07300
C901        C  0.86774633  0.23051578  0.70068650    -0.02500
C902        C  0.86457325  0.20474169  0.66621101    -0.02500
C903        C  0.84193016  0.21837076  0.63155772     0.07430
C904        C  0.83271995  0.26007024  0.62946683    -0.02690
Br905      Br  0.81207073  0.28433160  0.58019390    -0.01240
Br906      Br  0.90628544  0.29439613  0.64108148    -0.01310
Br907      Br  0.89542132  0.15551247  0.66614035    -0.01270
Br908      Br  0.89272666  0.21420156  0.75077983    -0.01260
C909        C  0.74616387  0.24728074  0.66354846    -0.02380
C910        C  0.77034574  0.22659231  0.69225636     0.07300
C911        C  0.76550973  0.18464464  0.69522851    -0.02500
C912        C  0.72973147  0.16665542  0.68172743    -0.02500
C913        C  0.70379228  0.18814896  0.65520229     0.07430
C914        C  0.71483063  0.22678484  0.64258784    -0.02690
Br915      Br  0.68281057  0.25352161  0.60165038    -0.01240
Br916      Br  0.75043171  0.30449402  0.65642486    -0.01310
Br917      Br  0.71732813  0.11490929  0.70519021    -0.01270
Br918      Br  0.80605242  0.15098138  0.71843558    -0.01260
C919        C  0.84173442  0.39476277  0.66724804    -0.02380
C920        C  0.88289777  0.38988744  0.66686052     0.07300
C921        C  0.90329454  0.37201387  0.69996684    -0.02500
C922        C  0.88127351  0.35159328  0.72903244    -0.02500
C923        C  0.83891890  0.35185991  0.72677556     0.07430
C924        C  0.82006570  0.37803912  0.69872578    -0.02690
Br925      Br  0.76589787  0.39445462  0.70257777    -0.01240
Br926      Br  0.81558735  0.42425711  0.62415339    -0.01310
Br927      Br  0.91028008  0.31919160  0.76718113    -0.01270
Br928      Br  0.96148142  0.37040685  0.70278249    -0.01260
C929        C  0.70488858  0.32582113  0.87322961    -0.02380
C930        C  0.68051376  0.35434404  0.85425850     0.07300
C931        C  0.67186423  0.35233550  0.81268945    -0.02500
C932        C  0.69565708  0.32821596  0.78820067    -0.02500
C933        C  0.72538789  0.30361251  0.80638504     0.07430
C934        C  0.72693217  0.29959957  0.84913073    -0.02690
Br935      Br  0.76018238  0.26144510  0.87636311    -0.01240
Br936      Br  0.70850573  0.32349483  0.93230669    -0.01310
Br937      Br  0.69148356  0.33737920  0.73089785    -0.01270
Br938      Br  0.63159283  0.38729536  0.78952571    -0.01260
C939        C  0.72958918  0.17384131  0.83176525    -0.02380
C940        C  0.68883855  0.18185146  0.83136678     0.07300
C941        C  0.67058150  0.20274720  0.79921964    -0.02500
C942        C  0.69440656  0.22037624  0.77032391    -0.02500
C943        C  0.73642449  0.22011658  0.77547621     0.07430
C944        C  0.75387420  0.19348435  0.80409441    -0.02690
Br945      Br  0.81043436  0.18613551  0.81073736    -0.01240
Br946      Br  0.75181072  0.13903648  0.87287336    -0.01310
Br947      Br  0.66769864  0.24404629  0.72486141    -0.01270
Br948      Br  0.61273270  0.20830500  0.79465666    -0.01260
C949        C  0.42053115  0.25511579  0.78973636    -0.02380
C950        C  0.41141886  0.22489046  0.81713731     0.07300
C951        C  0.37608551  0.22564382  0.83928011    -0.02500
C952        C  0.34658116  0.25267752  0.82876814    -0.02500
C953        C  0.35284953  0.28028007  0.79713422     0.07430
C954        C  0.39204959  0.28464602  0.78170761    -0.02690
Br955      Br  0.40997138  0.33213019  0.75483532    -0.01240
Br956      Br  0.47198848  0.25563371  0.76385129    -0.01310
Br957      Br  0.29573621  0.24426187  0.85291500    -0.01270
Br958      Br  0.36660378  0.18648673  0.88170992    -0.01260
C959        C  0.33955199  0.17500051  0.13997586    -0.02380
C960        C  0.37981888  0.18222677  0.15012073     0.07300
C961        C  0.39236716  0.21556782  0.17466116    -0.02500
C962        C  0.36418007  0.24280456  0.18857908    -0.02500
C963        C  0.32282235  0.23359660  0.18257143     0.07430
C964        C  0.31079597  0.20026234  0.15676299    -0.02690
Br965      Br  0.25522580  0.18795227  0.14408821    -0.01240
Br966      Br  0.32440435  0.12983808  0.10402951    -0.01310
Br967      Br  0.38526729  0.29341736  0.21007878    -0.01270
Br968      Br  0.44895795  0.22421431  0.18846657    -0.01260
C969        C  0.69628148  0.25224123  0.18215714    -0.02380
C970        C  0.73792807  0.25104505  0.17951087     0.07300
C971        C  0.75483497  0.22215058  0.15206614    -0.02500
C972        C  0.72988057  0.19278336  0.13259055    -0.02500
C973        C  0.69087917  0.18774740  0.14652211     0.07430
C974        C  0.67446166  0.21744017  0.17310689    -0.02690
Br975      Br  0.62637987  0.21115224  0.20442673    -0.01240
Br976      Br  0.66768466  0.29933341  0.19915942    -0.01310
Br977      Br  0.75002138  0.15569605  0.09163012    -0.01270
Br978      Br  0.81116424  0.21700095  0.14380950    -0.01260
C979        C  0.72169896  0.18968507  0.26570685    -0.02380
C980        C  0.72102131  0.23243930  0.26721269     0.07300
C981        C  0.69436642  0.25204843  0.29439345    -0.02500
C982        C  0.67492177  0.22997803  0.32404914    -0.02500
C983        C  0.68301258  0.18902824  0.32719977     0.07430
C984        C  0.70384985  0.16810772  0.29644520    -0.02690
Br985      Br  0.70871586  0.10953813  0.29582935    -0.01240
Br986      Br  0.74645338  0.15857158  0.22329473    -0.01310
Br987      Br  0.63986651  0.25579673  0.36283577    -0.01270
Br988      Br  0.68616426  0.30929449  0.29534947    -0.01260
C989        C  0.82078373  0.21703306  0.37850928    -0.02380
C990        C  0.84868578  0.19125433  0.36051548     0.07300
C991        C  0.84664497  0.18017283  0.31951724    -0.02500
C992        C  0.82276704  0.20269315  0.29418610    -0.02500
C993        C  0.79790666  0.23309560  0.31086644     0.07430
C994        C  0.79386771  0.23695786  0.35343920    -0.02690
Br995      Br  0.75281309  0.26822741  0.37842196    -0.01240
Br996      Br  0.81972976  0.22453029  0.43727446    -0.01310
Br997      Br  0.83408926  0.19745433  0.23778998    -0.01270
Br998      Br  0.88113858  0.13816098  0.29790279    -0.01260
C999        C  0.78997257  0.31216573  0.13297237    -0.02380
C1000       C  0.78395914  0.32685980  0.17302221     0.07300
C1001       C  0.75203718  0.35341868  0.17998793    -0.02500
C1002       C  0.72256236  0.35724446  0.15008048    -0.02500
C1003       C  0.72303326  0.33125640  0.11515436     0.07430
C1004       C  0.75746821  0.30966855  0.10579682    -0.02690
Br1005     Br  0.76122061  0.28055623  0.05416588    -0.01240
Br1006     Br  0.84228054  0.30450197  0.11148890    -0.01310
Br1007     Br  0.68084482  0.39701245  0.15870367    -0.01270
Br1008     Br  0.74118728  0.37601672  0.23308131    -0.01260
C1009       C  0.74206011  0.86858505  0.21163458    -0.02380
C1010       C  0.72153187  0.84034673  0.23612500     0.07300
C1011       C  0.67983819  0.83653443  0.23144878    -0.02500
C1012       C  0.66138672  0.84952095  0.19590305    -0.02500
C1013       C  0.68326789  0.87435457  0.16932730     0.07430
C1014       C  0.72231626  0.88672674  0.17921849    -0.02690
Br1015     Br  0.74926765  0.92557073  0.14530368    -0.01240
Br1016     Br  0.79701276  0.88282282  0.21866860    -0.01310
Br1017     Br  0.60731523  0.82992408  0.18413394    -0.01270
Br1018     Br  0.64705846  0.81591356  0.27364595    -0.01260
C1019       C  0.68459231  0.72474689  0.22514400    -0.02380
C1020       C  0.70973440  0.75352865  0.20598687     0.07300
C1021       C  0.71142181  0.75212890  0.16353786    -0.02500
C1022       C  0.70296762  0.71599387  0.14316006    -0.02500
C1023       C  0.67810436  0.68689850  0.16184350     0.07430
C1024       C  0.66611788  0.69329854  0.20191607    -0.02690
Br1025     Br  0.62930041  0.65522147  0.22577811    -0.01240
Br1026     Br  0.67710415  0.72382437  0.28257882    -0.01310
Br1027     Br  0.73227326  0.70745122  0.09353142    -0.01270
Br1028     Br  0.72477177  0.79788576  0.13172416    -0.01260
C1029       C  0.81952885  0.69333850  0.30269302    -0.02380
C1030       C  0.83489698  0.72009155  0.27349170     0.07300
C1031       C  0.87676481  0.72332707  0.26893038    -0.02500
C1032       C  0.90203208  0.70932225  0.29944800    -0.02500
C1033       C  0.88556625  0.68703114  0.33096952     0.07430
C1034       C  0.84534472  0.67548368  0.33043482    -0.02690
Br1035     Br  0.82562654  0.63902483  0.37122524    -0.01240
Br1036     Br  0.76364903  0.68540886  0.31122779    -0.01310
Br1037     Br  0.95952194  0.71873199  0.29703922    -0.01270
Br1038     Br  0.90119855  0.74064930  0.22005520    -0.01260
C1039       C  0.69633698  0.84450225  0.35544067    -0.02380
C1040       C  0.69407954  0.88352693  0.34079796     0.07300
C1041       C  0.72612164  0.90141164  0.32052012    -0.02500
C1042       C  0.76063681  0.87936686  0.31511743    -0.02500
C1043       C  0.75928771  0.83726438  0.32022045     0.07430
C1044       C  0.72854960  0.82086920  0.34438836    -0.02690
Br1045     Br  0.72719011  0.76616205  0.36113958    -0.01240
Br1046     Br  0.65348792  0.82343573  0.38833090    -0.01310
Br1047     Br  0.81009642  0.90910639  0.31236299    -0.01270
Br1048     Br  0.72434998  0.95724973  0.30387442    -0.01260
C1049       C  0.84539740  0.72518057  0.14140470    -0.02380
C1050       C  0.85285722  0.68515120  0.15102686     0.07300
C1051       C  0.82513758  0.66271925  0.17391753    -0.02500
C1052       C  0.79393472  0.68274323  0.19256496    -0.02500
C1053       C  0.79349504  0.72515493  0.19244839     0.07430
C1054       C  0.81706258  0.74603602  0.16388363    -0.02690
Br1055     Br  0.81730590  0.80347918  0.15906654    -0.01240
Br1056     Br  0.87853054  0.75244361  0.10238713    -0.01310
Br1057     Br  0.75308084  0.65136288  0.21802429    -0.01270
Br1058     Br  0.82904707  0.60497396  0.18152332    -0.01260
C1059       C  0.90177223  0.34645453  0.17606987    -0.02380
C1060       C  0.88531485  0.38385812  0.16730070     0.07300
C1061       C  0.85944454  0.40291071  0.19469261    -0.02500
C1062       C  0.84610842  0.38159543  0.22787770    -0.02500
C1063       C  0.85223387  0.33937176  0.22879939     0.07430
C1064       C  0.88288610  0.32266034  0.20453444    -0.02690
Br1065     Br  0.89442841  0.26618851  0.20182639    -0.01240
Br1066     Br  0.94613656  0.32601854  0.14479864    -0.01310
Br1067     Br  0.82502645  0.41275778  0.27235068    -0.01270
Br1068     Br  0.84403753  0.45889719  0.18825047    -0.01260
C1069       C  0.19485671  0.39417038  0.18208980    -0.02380
C1070       C  0.17361785  0.38150948  0.14661092     0.07300
C1071       C  0.16751375  0.34054681  0.13662895    -0.02500
C1072       C  0.18473834  0.31153633  0.16163598    -0.02500
C1073       C  0.20674119  0.32386983  0.19748260     0.07430
C1074       C  0.20841327  0.36551968  0.20913997    -0.02690
Br1075     Br  0.22178726  0.38622955  0.26286668    -0.01240
Br1076     Br  0.20546195  0.45154418  0.19363726    -0.01310
Br1077     Br  0.17695904  0.25523197  0.14624036    -0.01270
Br1078     Br  0.13674716  0.32488988  0.08808139    -0.01260
C1079       C  0.23797279  0.75495882  0.15575896    -0.02380
C1080       C  0.26499397  0.73538858  0.18274557     0.07300
C1081       C  0.26175482  0.69330971  0.18550992    -0.02500
C1082       C  0.22513011  0.67463698  0.17668056    -0.02500
C1083       C  0.19688415  0.69441190  0.15136888     0.07430
C1084       C  0.20571532  0.73317793  0.13751031    -0.02690
Br1085     Br  0.17026027  0.75776272  0.09808095    -0.01240
Br1086     Br  0.24034325  0.81184726  0.14650259    -0.01310
Br1087     Br  0.21501747  0.62479825  0.20470452    -0.01270
Br1088     Br  0.30556944  0.66010101  0.20162414    -0.01260
C1089       C  0.34813974  0.76014175  0.15838352    -0.02380
C1090       C  0.35090422  0.76253348  0.20096532     0.07300
C1091       C  0.37734053  0.73576334  0.22125863    -0.02500
C1092       C  0.39448131  0.70371044  0.19956792    -0.02500
C1093       C  0.38190027  0.69612513  0.15928467     0.07430
C1094       C  0.35816706  0.72452246  0.13845201    -0.02690
Br1095     Br  0.33548863  0.71537805  0.08412006    -0.01240
Br1096     Br  0.33364578  0.80526385  0.12612158    -0.01310
Br1097     Br  0.43151029  0.66715094  0.22540708    -0.01270
Br1098     Br  0.39041427  0.73965734  0.27807251    -0.01260
C1099       C  0.41062029  0.85072012  0.20616554    -0.02380
C1100       C  0.39147068  0.87182096  0.17484735     0.07300
C1101       C  0.35278883  0.88610517  0.17903264    -0.02500
C1102       C  0.33023046  0.87226743  0.21091584    -0.02500
C1103       C  0.34714612  0.84570324  0.23965707     0.07430
C1104       C  0.38902943  0.84095401  0.24043000    -0.02690
Br1105     Br  0.41866233  0.83225630  0.29003907    -0.01240
Br1106     Br  0.46687206  0.83760034  0.20333846    -0.01310
Br1107     Br  0.27570277  0.88736910  0.21036076    -0.01270
Br1108     Br  0.33010494  0.92147375  0.13832810    -0.01260
C1109       C  0.24831589  0.69837874  0.28990508    -0.02380
C1110       C  0.22862478  0.72666683  0.26470732     0.07300
C1111       C  0.18649218  0.72620851  0.26212981    -0.02500
C1112       C  0.16509374  0.70571269  0.29123626    -0.02500
C1113       C  0.18611812  0.68360296  0.32087167     0.07430
C1114       C  0.22654664  0.67565699  0.31706626    -0.02690
Br1115     Br  0.25233053  0.63793842  0.35323129    -0.01240
Br1116     Br  0.30498562  0.69432893  0.29432379    -0.01310
Br1117     Br  0.10711274  0.70885716  0.29023301    -0.01270
Br1118     Br  0.15686373  0.75228048  0.21983392    -0.01260
C1119       C  0.18716353  0.39313609  0.81383668    -0.02380
C1120       C  0.16765687  0.37711482  0.84747516     0.07300
C1121       C  0.16694344  0.33579521  0.85471661    -0.02500
C1122       C  0.19152462  0.31058840  0.83173021    -0.02500
C1123       C  0.21395423  0.32712165  0.79946592     0.07430
C1124       C  0.20771608  0.36743080  0.78818357    -0.02690
Br1125     Br  0.22398615  0.38872979  0.73740743    -0.01240
Br1126     Br  0.18780949  0.45095003  0.80370193    -0.01310
Br1127     Br  0.19974490  0.25711543  0.85193655    -0.01270
Br1128     Br  0.13585165  0.31536856  0.89901144    -0.01260
C1129       C  0.22409119  0.69151462  0.76499427    -0.02380
C1130       C  0.22333600  0.73411438  0.76576781     0.07300
C1131       C  0.19694176  0.75425312  0.79283781    -0.02500
C1132       C  0.17786987  0.73262741  0.82304731    -0.02500
C1133       C  0.18726050  0.69208234  0.82764383     0.07430
C1134       C  0.20805714  0.67064909  0.79710037    -0.02690
Br1135     Br  0.21586752  0.61257414  0.79825423    -0.01240
Br1136     Br  0.24787420  0.66011719  0.72217206    -0.01310
Br1137     Br  0.14234880  0.75883821  0.86117002    -0.01270
Br1138     Br  0.18903710  0.81157371  0.79346675    -0.01260
C1139       C  0.23246666  0.69514877  0.63190802    -0.02380
C1140       C  0.19366261  0.68956331  0.64620485     0.07300
C1141       C  0.17679779  0.71951179  0.67223122    -0.02500
C1142       C  0.19844730  0.75453066  0.68124154    -0.02500
C1143       C  0.24013862  0.75365642  0.67852766     0.07430
C1144       C  0.25712813  0.72493154  0.65103214    -0.02690
Br1145     Br  0.31342370  0.72055469  0.64240200    -0.01240
Br1146     Br  0.25289836  0.65832459  0.59086470    -0.01310
Br1147     Br  0.16962833  0.80161343  0.69789440    -0.01270
Br1148     Br  0.12803473  0.71348940  0.70251758    -0.01260
C1149       C  0.32458488  0.83809685  0.83754706    -0.02380
C1150       C  0.34214073  0.80866873  0.81154961     0.07300
C1151       C  0.38378722  0.80313942  0.81304879    -0.02500
C1152       C  0.40780586  0.83405425  0.82945848    -0.02500
C1153       C  0.38954321  0.86588699  0.85070875     0.07430
C1154       C  0.34916255  0.86493496  0.85985780    -0.02690
Br1155     Br  0.32759851  0.90500734  0.89734072    -0.01240
Br1156     Br  0.26910852  0.85121556  0.83590326    -0.01310
Br1157     Br  0.46539536  0.83278050  0.82296410    -0.01270
Br1158     Br  0.40876815  0.75408644  0.79563569    -0.01260
C1159       C  0.40179153  0.84781850  0.67222032    -0.02380
C1160       C  0.38422045  0.88532281  0.66557718     0.07300
C1161       C  0.36036859  0.90320992  0.69559420    -0.02500
C1162       C  0.35028638  0.88090160  0.72935804    -0.02500
C1163       C  0.35660901  0.83867067  0.72856696     0.07430
C1164       C  0.38552075  0.82302733  0.70157982    -0.02690
Br1165     Br  0.39767593  0.76668287  0.69730320    -0.01240
Br1166     Br  0.44421169  0.82875548  0.63747900    -0.01310
Br1167     Br  0.33410834  0.91078713  0.77689462    -0.01270
Br1168     Br  0.34422409  0.95929660  0.69238275    -0.01260
C1169       C  0.35039137  0.67744755  0.81657201    -0.02380
C1170       C  0.35283479  0.68822508  0.85769222     0.07300
C1171       C  0.32474657  0.71361553  0.87598229    -0.02500
C1172       C  0.29729730  0.73331989  0.85123905    -0.02500
C1173       C  0.30109140  0.73004919  0.80852758     0.07430
C1174       C  0.32622395  0.70009404  0.79148639    -0.02690
Br1175     Br  0.33744920  0.69589927  0.73487971    -0.01240
Br1176     Br  0.38442921  0.63543720  0.79441975    -0.01310
Br1177     Br  0.25589543  0.76339346  0.87710647    -0.01270
Br1178     Br  0.32396535  0.72078679  0.93481199    -0.01260
C1179       C  0.25735667  0.81490734  0.60826029    -0.02380
C1180       C  0.22446690  0.83749091  0.62000753     0.07300
C1181       C  0.22614026  0.86259237  0.65544122    -0.02500
C1182       C  0.25672565  0.85718871  0.68364641    -0.02500
C1183       C  0.28738301  0.82970294  0.67431357     0.07430
C1184       C  0.29110863  0.81592744  0.63356982    -0.02690
Br1185     Br  0.34168919  0.80803796  0.60842007    -0.01240
Br1186     Br  0.25734302  0.78698012  0.55571491    -0.01310
Br1187     Br  0.24849467  0.87880962  0.73754983    -0.01270
Br1188     Br  0.18543487  0.90297739  0.66652577    -0.01260
C1189       C  0.17239384  0.86196092  0.30886530    -0.02380
C1190       C  0.18122006  0.86403256  0.35049057     0.07300
C1191       C  0.20353940  0.83386702  0.36960822    -0.02500
C1192       C  0.22122993  0.80424161  0.34568189    -0.02500
C1193       C  0.22152406  0.80851682  0.30312423     0.07430
C1194       C  0.19430871  0.83561385  0.28458041    -0.02690
Br1195     Br  0.19010566  0.84346905  0.22718652    -0.01240
Br1196     Br  0.13470908  0.89942236  0.28539808    -0.01310
Br1197     Br  0.24112343  0.75745290  0.37208071    -0.01270
Br1198     Br  0.20967372  0.83278096  0.42857241    -0.01260
C1199       C  0.83005863  0.41374304  0.81964569    -0.02380
C1200       C  0.86394283  0.39686466  0.83812855     0.07300
C1201       C  0.86545424  0.35634150  0.84804276    -0.02500
C1202       C  0.83604157  0.33052621  0.83186215    -0.02500
C1203       C  0.80352494  0.34648894  0.80913377     0.07430
C1204       C  0.79805999  0.38849958  0.80851262    -0.02690
Br1205     Br  0.74699869  0.41241741  0.79851274    -0.01240
Br1206     Br  0.82673055  0.47157590  0.81200786    -0.01310
Br1207     Br  0.84741169  0.27416079  0.83368407    -0.01270
Br1208     Br  0.90980933  0.33642914  0.88093312    -0.01260
C1209       C  0.88937019  0.85535568  0.31904057    -0.02380
C1210       C  0.87934115  0.85930975  0.35976083     0.07300
C1211       C  0.85661921  0.82981952  0.37917369    -0.02500
C1212       C  0.83923471  0.79858621  0.35576479    -0.02500
C1213       C  0.84006179  0.80066103  0.31294048     0.07430
C1214       C  0.86817179  0.82712766  0.29487619    -0.02690
Br1215     Br  0.87582534  0.83080771  0.23776727    -0.01240
Br1216     Br  0.92827915  0.89231947  0.29621995    -0.01310
Br1217     Br  0.81977365  0.75250378  0.38382528    -0.01270
Br1218     Br  0.85011386  0.83189222  0.43784835    -0.01260
C1219       C  0.36074863  0.85102008  0.36445042    -0.02380
C1220       C  0.36461028  0.89055268  0.35123182     0.07300
C1221       C  0.33449302  0.90839694  0.32764923    -0.02500
C1222       C  0.30163003  0.88501394  0.31488111    -0.02500
C1223       C  0.30344269  0.84264116  0.31785502     0.07430
C1224       C  0.33143490  0.82614670  0.34589825    -0.02690
Br1225     Br  0.33498308  0.76979685  0.35645054    -0.01240
Br1226     Br  0.39868911  0.83051682  0.40429886    -0.01310
Br1227     Br  0.25330992  0.91299566  0.30221764    -0.01270
Br1228     Br  0.33691606  0.96540060  0.31498985    -0.01260
C1229       C  0.87852039  0.30802733  0.31507950    -0.02380
C1230       C  0.83687489  0.31356292  0.31282354     0.07300
C1231       C  0.81934981  0.34431609  0.33730762    -0.02500
C1232       C  0.84396645  0.37207548  0.35878746    -0.02500
C1233       C  0.88470159  0.37195468  0.35100191     0.07430
C1234       C  0.90267073  0.33927693  0.33069832    -0.02690
Br1235     Br  0.96032482  0.33700227  0.32452411    -0.01240
Br1236     Br  0.90346007  0.25809301  0.30060153    -0.01310
Br1237     Br  0.82223948  0.41385883  0.39407635    -0.01270
Br1238     Br  0.76359727  0.35654990  0.33541390    -0.01260
C1239       C  0.36034363  0.39421558  0.81288888    -0.02380
C1240       C  0.36992817  0.37961400  0.85146341     0.07300
C1241       C  0.34302777  0.35421232  0.87155361    -0.02500
C1242       C  0.30610360  0.34530379  0.85327883    -0.02500
C1243       C  0.30083840  0.35033377  0.81107240     0.07430
C1244       C  0.32695743  0.37780512  0.79157090    -0.02690
Br1245     Br  0.32082491  0.39070640  0.73509876    -0.01240
Br1246     Br  0.39440968  0.43496652  0.78916774    -0.01310
Br1247     Br  0.26258960  0.33604331  0.88909655    -0.01270
Br1248     Br  0.35383748  0.33559564  0.92637062    -0.01260
C1249       C  0.80444077  0.81647555  0.63848394    -0.02380
C1250       C  0.81277957  0.81458631  0.68098275     0.07300
C1251       C  0.84657010  0.83571601  0.69865514    -0.02500
C1252       C  0.87182677  0.85743710  0.67435596    -0.02500
C1253       C  0.86315852  0.85812694  0.63292413     0.07430
C1254       C  0.83071152  0.83742257  0.61433884    -0.02690
Br1255     Br  0.82286188  0.83841635  0.55544887    -0.01240
Br1256     Br  0.75726987  0.79489580  0.61107642    -0.01310
Br1257     Br  0.91749198  0.88813985  0.69740275    -0.01270
Br1258     Br  0.85654030  0.84197785  0.75617945    -0.01260
C1259       C  0.81658177  0.66608362  0.76917765    -0.02380
C1260       C  0.81326436  0.70763497  0.78087868     0.07300
C1261       C  0.83352435  0.72295317  0.81669292    -0.02500
C1262       C  0.85543610  0.69732915  0.84079209    -0.02500
C1263       C  0.85771425  0.65687782  0.82875416     0.07430
C1264       C  0.83874482  0.64072190  0.79372712    -0.02690
Br1265     Br  0.84381130  0.58345944  0.78011270    -0.01240
Br1266     Br  0.79426728  0.64126049  0.72027354    -0.01310
Br1267     Br  0.88444294  0.71754272  0.88946102    -0.01270
Br1268     Br  0.83823810  0.77944478  0.83101978    -0.01260
C1269       C  0.66706744  0.80009619  0.78277860    -0.02380
C1270       C  0.70856893  0.81033956  0.78287019     0.07300
C1271       C  0.72306216  0.84541350  0.80482893    -0.02500
C1272       C  0.69673344  0.86998193  0.82537267    -0.02500
C1273       C  0.65637547  0.85923225  0.82443911     0.07430
C1274       C  0.64093883  0.82541254  0.80303736    -0.02690
Br1275     Br  0.58354841  0.81446128  0.80219804    -0.01240
Br1276     Br  0.64336171  0.75178168  0.75885752    -0.01310
Br1277     Br  0.71565054  0.91751511  0.85680963    -0.01270
Br1278     Br  0.77883534  0.85809476  0.81379896    -0.01260
C1279       C  0.71263614  0.90234148  0.68090448    -0.02380
C1280       C  0.68087063  0.88590683  0.65691793     0.07300
C1281       C  0.67107871  0.84489667  0.65660777    -0.02500
C1282       C  0.69505548  0.81895798  0.67896721    -0.02500
C1283       C  0.72894450  0.83439501  0.70175920     0.07430
C1284       C  0.73766198  0.87664851  0.70218556    -0.02690
Br1285     Br  0.78386875  0.90225665  0.72771909    -0.01240
Br1286     Br  0.72143541  0.96085561  0.68457510    -0.01310
Br1287     Br  0.68443523  0.76193199  0.67119258    -0.01270
Br1288     Br  0.62550827  0.82473777  0.62427912    -0.01260
C1289       C  0.84856571  0.68797519  0.63981881    -0.02380
C1290       C  0.88857937  0.68689654  0.65231072     0.07300
C1291       C  0.90366764  0.71045575  0.68542749    -0.02500
C1292       C  0.87734469  0.73207182  0.70954950    -0.02500
C1293       C  0.83595445  0.73264717  0.69840081     0.07430
C1294       C  0.82210539  0.71095902  0.66268824    -0.02690
Br1295     Br  0.76619702  0.70542175  0.64803925    -0.01240
Br1296     Br  0.83040305  0.65668597  0.59207099    -0.01310
Br1297     Br  0.90096464  0.75689097  0.75781809    -0.01270
Br1298     Br  0.96127235  0.71378507  0.69689235    -0.01260
C1299       C  0.68799868  0.66807150  0.81192587    -0.02380
C1300       C  0.68576732  0.67885428  0.85300144     0.07300
C1301       C  0.70820427  0.71125456  0.87052624    -0.02500
C1302       C  0.72996454  0.73633012  0.84560267    -0.02500
C1303       C  0.73196705  0.72675709  0.80322455     0.07430
C1304       C  0.71112326  0.69195004  0.78683250    -0.02690
Br1305     Br  0.70685164  0.68011835  0.72920041    -0.01240
Br1306     Br  0.65830115  0.62119368  0.79047736    -0.01310
Br1307     Br  0.75259885  0.78373558  0.87244156    -0.01270
Br1308     Br  0.70967063  0.72058052  0.92957836    -0.01260
loop_ 
_geom_bond_atom_site_label_1 
_geom_bond_atom_site_label_2 
_geom_bond_distance 
_geom_bond_site_symmetry_2 
_ccdc_geom_bond_type 
C1            C2   1.388       .  A
C1            C6   1.398       .  A
C1         C1300   1.432       .  S
C2            C3   1.380       .  A
C2            H7   1.086       .  S
C3            C4   1.451       .  A
C3          C378   1.521       .  S
C4            C5   1.450       .  A
C4            H8   1.079       .  S
C5            C6   1.386       .  A
C5          C421   1.528       .  S
C6            H9   1.085       .  S
C10          C11   1.387       .  A
C10          C15   1.396       .  A
C10        C1290   1.434       .  S
C11          C12   1.380       .  A
C11          H16   1.086       .  S
C12          C13   1.450       .  A
C12         C142   1.519       .  S
C13          C14   1.451       .  A
C13          H17   1.079   1_655  S
C14          C15   1.387       .  A
C14         C185   1.529       .  S
C15          H18   1.085       .  S
C19          C20   1.388       .  A
C19          C24   1.396       .  A
C19        C1280   1.435       .  S
C20          C21   1.383       .  A
C20          H25   1.085       .  S
C21          C22   1.449       .  A
C21         C596   1.522       .  S
C22          C23   1.450       .  A
C22          H26   1.080   1_565  S
C23          C24   1.386       .  A
C23         C639   1.525       .  S
C24          H27   1.085       .  S
C28          C29   1.408       .  A
C28          C33   1.403       .  A
C28        C1303   1.479       .  S
C29          C30   1.402       .  A
C29        C1260   1.469       .  S
C30          C31   1.406       .  A
C30        C1293   1.484       .  S
C31          C32   1.402       .  A
C31        C1250   1.463       .  S
C32          C33   1.406       .  A
C32        C1283   1.483       .  S
C33        C1270   1.469       .  S
C34          C35   1.393       .  A
C34          C39   1.388       .  A
C34        C1240   1.434       .  S
C35          C36   1.393       .  A
C35          H40   1.085       .  S
C36          C37   1.440       .  A
C36         C521   1.515       .  S
C37          C38   1.436       .  A
C37          H41   1.066       .  S
C38          C39   1.375       .  A
C38         C293   1.510       .  S
C39          H42   1.087       .  S
C43          C44   1.390       .  A
C43          C48   1.375       .  A
C43        C1233   1.418       .  S
C44          C45   1.389       .  A
C44          H49   1.085       .  S
C45          C46   1.445       .  A
C45         C303   1.515       .  S
C46          C47   1.442       .  A
C46          H50   1.065   1_655  S
C47          C48   1.369       .  A
C47         C749   1.505       .  S
C48          H51   1.088       .  S
C52          C53   1.387       .  A
C52          C57   1.375       .  A
C52        C1220   1.419       .  S
C53          C54   1.388       .  A
C53          H58   1.084       .  S
C54          C55   1.448       .  A
C54         C511   1.516       .  S
C55          C56   1.444       .  A
C55          H59   1.063   1_565  S
C56          C57   1.370       .  A
C56         C701   1.512       .  S
C57          H60   1.088       .  S
C61          C62   1.370       .  A
C61          C66   1.388       .  A
C61        C1210   1.412       .  S
C62          C63   1.366       .  A
C62          H67   1.088       .  S
C63          C64   1.446       .  A
C63         C143   1.509       .  S
C64          C65   1.450       .  A
C64          H68   1.060       .  S
C65          C66   1.383       .  A
C65         C640   1.520       .  S
C66          H69   1.081       .  S
C70          C71   1.377       .  A
C70          C75   1.458       .  A
C70         C642   1.524       .  S
C71          C72   1.375       .  A
C71          H76   1.086       .  S
C72          C73   1.369       .  A
C72        C1253   1.406       .  S
C73          C74   1.376       .  A
C73          H77   1.086       .  S
C74          C75   1.456       .  A
C74         C140   1.520       .  S
C75          H78   1.072       .  S
C79          C80   1.370       .  A
C79          C84   1.376       .  A
C79        C1200   1.403       .  S
C80          C81   1.365       .  A
C80          H85   1.089       .  S
C81          C82   1.448       .  A
C81         C379   1.510       .  S
C82          C83   1.451       .  A
C82          H86   1.063       .  S
C83          C84   1.384       .  A
C83         C186   1.510       .  S
C84          H87   1.086       .  S
C88          C89   1.379       .  A
C88          C93   1.466       .  A
C88         C376   1.530       .  S
C89          C90   1.368       .  A
C89          H94   1.085       .  S
C90          C91   1.371       .  A
C90        C1263   1.411       .  S
C91          C92   1.380       .  A
C91          H95   1.086       .  S
C92          C93   1.464       .  A
C92         C188   1.532       .  S
C93          H96   1.078       .  S
C97          C98   1.453       .  A
C97         C102   1.374       .  A
C97         C124   1.524       .  S
C98          C99   1.457       .  A
C98         H103   1.073       .  S
C99         C100   1.390       .  A
C99         C703   1.532       .  S
C100        C101   1.397       .  A
C100        H104   1.083       .  S
C101        C102   1.379       .  A
C101       C1190   1.429       .  S
C102        H105   1.086       .  S
C106        C107   1.456       .  A
C106        C111   1.385       .  A
C106        C126   1.501       .  S
C107        C108   1.447       .  A
C107        H112   1.081       .  S
C108        C109   1.367       .  A
C108        C719   1.505       .  S
C109        C110   1.373       .  A
C109        H113   1.090       .  S
C110        C111   1.380       .  A
C110       C1180   1.410       .  S
C111        H114   1.085       .  S
O115        C123   1.263       .  A
O115       Co135   2.040       .  S
O116        C124   1.291       .  A
O116       Co136   2.082       .  S
O117        C125   1.265       .  A
O117       Co137   1.975       .  S
O118        C126   1.259       .  A
O118       Co138   1.977       .  S
O119        C125   1.276       .  A
O119       Co136   2.076       .  S
O120        C126   1.285       .  A
O120       Co135   2.080       .  S
O121        C124   1.261       .  A
O121       Co138   2.001       .  S
O122        C123   1.267       .  A
O122       Co137   1.968       .  S
C123        C170   1.511       .  S
C125        C244   1.528       .  S
O127        C140   1.308       .  A
O127       Co135   2.116   1_655  S
O128        C141   1.289       .  A
O128       Co136   2.034   1_655  S
O129        C142   1.263   1_455  A
O129       Co137   2.015       .  S
O130        C143   1.262   1_455  A
O130       Co138   1.964       .  S
O131        C143   1.310       .  A
O131       Co136   2.117   1_655  S
O132        C142   1.291       .  A
O132       Co135   2.028   1_655  S
O133        C140   1.264   1_455  A
O133       Co138   1.972       .  S
O134        C141   1.266   1_455  A
O134       Co137   2.028       .  S
Co135       O139   2.185       .  S
Co136       O139   2.174       .  S
Co137       O139   2.161       .  S
Co138       O139   2.001       .  S
C141        C393   1.530       .  S
C144        C145   1.366       .  A
C144        C149   1.459       .  A
C144        C274   1.520       .  S
C145        C146   1.373       .  A
C145        H150   1.087       .  S
C146        C147   1.391       .  A
C146       C1170   1.420       .  S
C147        C148   1.390       .  A
C147        H151   1.084       .  S
C148        C149   1.461       .  A
C148        C423   1.537       .  S
C149        H152   1.081       .  S
C153        C154   1.399       .  A
C153        C158   1.455       .  A
C153        C720   1.539       .  S
C154        C155   1.404       .  A
C154        H159   1.084       .  S
C155        C156   1.381       .  A
C155       C1160   1.439       .  S
C156        C157   1.368       .  A
C156        H160   1.087       .  S
C157        C158   1.450       .  A
C157        C595   1.520       .  S
C158        H161   1.078   1_565  S
C162        C163   1.406       .  A
C162        C167   1.413       .  A
C162       C1183   1.467       .  S
C163        C164   1.404       .  A
C163       C1163   1.485       .  S
C164        C165   1.394       .  A
C164       C1150   1.456       .  S
C165        C166   1.394       .  A
C165       C1173   1.469       .  S
C166        C167   1.410       .  A
C166       C1130   1.479       .  S
C167       C1143   1.481       .  S
C168        C169   1.383       .  A
C168        C173   1.393       .  A
C168       C1140   1.451       .  S
C169        C170   1.385       .  A
C169        H174   1.086       .  S
C170        C171   1.445       .  A
C171        C172   1.450       .  A
C171        H175   1.078       .  S
C172        C173   1.395       .  A
C172        C204   1.511       .  S
C173        H176   1.084       .  S
O177        C185   1.292       .  A
O177       Co197   2.039   1_655  S
O178        C186   1.272       .  A
O178       Co198   2.036   1_655  S
O179        C187   1.256   1_455  A
O179       Co199   2.001       .  S
O180        C188   1.265   1_455  A
O180       Co200   1.964       .  S
O181        C187   1.287       .  A
O181       Co198   2.028   1_655  S
O182        C188   1.313       .  A
O182       Co197   2.129   1_655  S
O183        C186   1.244   1_455  A
O183       Co200   2.014       .  S
O184        C185   1.267   1_455  A
O184       Co199   2.030       .  S
C187        C609   1.513       .  S
O189        C202   1.296       .  A
O189       Co197   2.121       .  S
O190        C203   1.271       .  A
O190       Co198   2.006       .  S
O191        C204   1.268       .  A
O191       Co199   1.976       .  S
O192        C205   1.271       .  A
O192       Co200   2.007       .  S
O193        C205   1.300       .  A
O193       Co198   2.122       .  S
O194        C204   1.266       .  A
O194       Co197   2.038       .  S
O195        C202   1.255       .  A
O195       Co200   1.958       .  S
O196        C203   1.276       .  A
O196       Co199   1.995       .  S
Co197       O201   2.187       .  S
Co198       O201   2.100       .  S
Co199       O201   2.191       .  S
Co200       O201   2.050       .  S
C202        C217   1.508       .  S
C203        C762   1.512       .  S
C205        C206   1.523       .  S
C206        C207   1.451       .  A
C206        C211   1.378       .  A
C207        C208   1.450       .  A
C207        H212   1.077       .  S
C208        C209   1.391       .  A
C208        C292   1.537       .  S
C209        C210   1.401       .  A
C209        H213   1.085       .  S
C210        C211   1.389       .  A
C210       C1120   1.433       .  S
C211        H214   1.086       .  S
C215        C216   1.383       .  A
C215        C220   1.398       .  A
C215       C1133   1.441       .  S
C216        C217   1.379       .  A
C216        H221   1.086       .  S
C217        C218   1.447       .  A
C218        C219   1.441       .  A
C218        H222   1.070       .  S
C219        C220   1.392       .  A
C219        C276   1.514       .  S
C220        H223   1.085       .  S
C224        C225   1.388       .  A
C224        C229   1.370       .  A
C224       C1153   1.407       .  S
C225        C226   1.385       .  A
C225        H230   1.084       .  S
C226        C227   1.458       .  A
C226        C597   1.531       .  S
C227        C228   1.455       .  A
C227        H231   1.061       .  S
C228        C229   1.364       .  A
C228        C422   1.523       .  S
C229        H232   1.088       .  S
C233        C234   1.459       .  A
C233        C238   1.380       .  A
C233        C424   1.528       .  S
C234        C235   1.461       .  A
C234        H239   1.073       .  S
C235        C236   1.381       .  A
C235        C594   1.528       .  S
C236        C237   1.368       .  A
C236        H240   1.085       .  S
C237        C238   1.374       .  A
C237       C1273   1.411       .  S
C238        H241   1.086       .  S
C242        C243   1.455       .  A
C242        C247   1.377       .  A
C242        C320   1.520       .  S
C243        C244   1.450       .  A
C243        H248   1.062       .  S
C244        C245   1.387       .  A
C245        C246   1.397       .  A
C245        H249   1.083       .  S
C246        C247   1.379       .  A
C246       C1113   1.435       .  S
C247        H250   1.086       .  S
C251        C252   1.404       .  A
C251        C256   1.410       .  A
C251       C1223   1.473       .  S
C252        C253   1.397       .  A
C252       C1193   1.475       .  S
C253        C254   1.402       .  A
C253       C1110   1.475       .  S
C254        C255   1.409       .  A
C254       C1080   1.481       .  S
C255        C256   1.407       .  A
C255       C1090   1.483       .  S
C256       C1103   1.480       .  S
C257        C258   1.391       .  A
C257        C262   1.455       .  A
C257        C277   1.519       .  S
C258        C259   1.394       .  A
C258        H263   1.082       .  S
C259        C260   1.383       .  A
C259       C1093   1.442       .  S
C260        C261   1.381       .  A
C260        H264   1.087       .  S
C261        C262   1.447       .  A
C261        C439   1.519       .  S
C262        H265   1.071       .  S
O266        C274   1.263       .  A
O266       Co286   1.997   1_556  S
O267        C275   1.264       .  A
O267       Co287   1.965   1_554  S
O268        C276   1.275       .  A
O268       Co288   2.066       .  S
O269        C277   1.291       .  A
O269       Co289   2.109       .  S
O270        C276   1.262       .  A
O270       Co287   1.968       .  S
O271        C277   1.258       .  A
O271       Co286   1.982       .  S
O272        C275   1.260       .  A
O272       Co289   2.030       .  S
O273        C274   1.293       .  A
O273       Co288   2.089       .  S
C275        C787   1.504       .  S
O278        C291   1.263       .  A
O278       Co286   1.967       .  S
O279        C292   1.267       .  A
O279       Co287   2.030       .  S
O280        C293   1.304       .  A
O280       Co288   2.107       .  S
O281        C294   1.289       .  A
O281       Co289   2.030       .  S
O282        C294   1.267       .  A
O282       Co287   2.020   1_554  S
O283        C293   1.256       .  A
O283       Co286   1.961   1_556  S
O284        C291   1.305       .  A
O284       Co289   2.103       .  S
O285        C292   1.293       .  A
O285       Co288   2.054       .  S
Co286       O290   1.986   1_554  S
Co287       O290   2.138       .  S
Co288       O290   2.164       .  S
Co289       O290   2.187   1_554  S
C291        C798   1.521       .  S
C294        C324   1.517       .  S
O295        C303   1.262   1_455  A
O295       Co315   1.958       .  S
O296        C304   1.266       .  A
O296       Co316   2.027       .  S
O297        C305   1.291       .  A
O297       Co317   2.024       .  S
O298        C306   1.304       .  A
O298       Co318   2.117       .  S
O299        C305   1.265       .  A
O299       Co316   2.030   1_655  S
O300        C306   1.269       .  A
O300       Co315   1.982       .  S
O301        C304   1.287       .  A
O301       Co318   2.029       .  S
O302        C303   1.306       .  A
O302       Co317   2.120       .  S
C304        C326   1.522       .  S
C305        C335   1.524       .  S
C306        C816   1.532       .  S
O307        C320   1.257       .  A
O307       Co315   1.994       .  S
O308        C321   1.267       .  A
O308       Co316   1.979   1_655  S
O309        C322   1.291       .  A
O309       Co317   2.085       .  S
O310        C323   1.266       .  A
O310       Co318   2.036       .  S
O311        C323   1.267       .  A
O311       Co316   1.980       .  S
O312        C322   1.263   1_455  A
O312       Co315   1.998       .  S
O313        C320   1.290       .  A
O313       Co318   2.091       .  S
O314        C321   1.272       .  A
O314       Co317   2.060       .  S
Co315       O319   1.983       .  S
Co316       O319   2.160       .  S
Co317       O319   2.167   1_655  S
Co318       O319   2.175       .  S
C321        C344   1.521       .  S
C322        C389   1.519       .  S
C323        C791   1.507       .  S
C324        C325   1.445       .  A
C324        C329   1.390       .  A
C325        C326   1.442       .  A
C325        H330   1.079       .  S
C326        C327   1.386       .  A
C327        C328   1.397       .  A
C327        H331   1.086       .  S
C328        C329   1.395       .  A
C328       C1070   1.443       .  S
C329        H332   1.085       .  S
C333        C334   1.455       .  A
C333        C338   1.391       .  A
C333        C360   1.528       .  S
C334        C335   1.448       .  A
C334        H339   1.079       .  S
C335        C336   1.372       .  A
C336        C337   1.381       .  A
C336        H340   1.087       .  S
C337        C338   1.400       .  A
C337       C1060   1.434       .  S
C338        H341   1.084       .  S
C342        C343   1.451       .  A
C342        C347   1.377       .  A
C342        C362   1.511       .  S
C343        C344   1.446       .  A
C343        H348   1.067       .  S
C344        C345   1.390       .  A
C345        C346   1.399       .  A
C345        H349   1.081       .  S
C346        C347   1.377       .  A
C346       C1050   1.443       .  S
C347        H350   1.086       .  S
O351        C359   1.268       .  A
O351       Co371   2.036   1_554  S
O352        C360   1.290       .  A
O352       Co372   2.116   1_554  S
O353        C361   1.267       .  A
O353       Co373   1.978       .  S
O354        C362   1.256       .  A
O354       Co374   1.983   1_554  S
O355        C361   1.272       .  A
O355       Co372   2.001   1_554  S
O356        C362   1.288       .  A
O356       Co371   2.086   1_554  S
O357        C360   1.261       .  A
O357       Co374   1.989   1_554  S
O358        C359   1.267       .  A
O358       Co373   1.968       .  S
C359        C406   1.502       .  S
C361        C462   1.514       .  S
O363        C376   1.308       .  A
O363       Co371   2.110       .  S
O364        C377   1.298       .  A
O364       Co372   2.056       .  S
O365        C378   1.258       .  A
O365       Co373   2.007   1_556  S
O366        C379   1.262       .  A
O366       Co374   1.970       .  S
O367        C379   1.309       .  A
O367       Co372   2.109       .  S
O368        C378   1.290       .  A
O368       Co371   2.039       .  S
O369        C376   1.266       .  A
O369       Co374   1.992       .  S
O370        C377   1.261       .  A
O370       Co373   2.000   1_556  S
Co371       O375   2.180   1_556  S
Co372       O375   2.163   1_556  S
Co373       O375   2.184       .  S
Co374       O375   1.992   1_556  S
C377        C600   1.531       .  S
C380        C381   1.386       .  A
C380        C385   1.455       .  A
C380        C492   1.518       .  S
C381        C382   1.385       .  A
C381        H386   1.085       .  S
C382        C383   1.384       .  A
C382       C1040   1.419       .  S
C383        C384   1.370       .  A
C383        H387   1.087       .  S
C384        C385   1.451       .  A
C384        C641   1.525       .  S
C385        H388   1.079   1_565  S
C389        C390   1.369       .  A
C389        C394   1.452       .  A
C390        C391   1.379       .  A
C390        H395   1.087       .  S
C391        C392   1.390       .  A
C391       C1033   1.422       .  S
C392        C393   1.390       .  A
C392        H396   1.085       .  S
C393        C394   1.456       .  A
C394        H397   1.079   1_655  S
C398        C399   1.406       .  A
C398        C403   1.406       .  A
C398       C1043   1.475       .  S
C399        C400   1.400       .  A
C399       C1213   1.469       .  S
C400        C401   1.399       .  A
C400       C1030   1.475       .  S
C401        C402   1.403       .  A
C401       C1053   1.471       .  S
C402        C403   1.401       .  A
C402       C1020   1.479       .  S
C403       C1010   1.483       .  S
C404        C405   1.387       .  A
C404        C409   1.386       .  A
C404       C1023   1.449       .  S
C405        C406   1.391       .  A
C405        H410   1.085       .  S
C406        C407   1.447       .  A
C407        C408   1.442       .  A
C407        H411   1.078       .  S
C408        C409   1.387       .  A
C408        C440   1.509       .  S
C409        H412   1.086       .  S
O413        C421   1.293       .  A
O413       Co433   2.045       .  S
O414        C422   1.317       .  A
O414       Co434   2.140       .  S
O415        C423   1.268       .  A
O415       Co435   2.036   1_556  S
O416        C424   1.267       .  A
O416       Co436   1.982       .  S
O417        C423   1.294       .  A
O417       Co434   2.039       .  S
O418        C424   1.308       .  A
O418       Co433   2.117       .  S
O419        C422   1.263       .  A
O419       Co436   1.965       .  S
O420        C421   1.263       .  A
O420       Co435   2.016   1_556  S
O425        C438   1.289       .  A
O425       Co433   2.098   1_554  S
O426        C439   1.272       .  A
O426       Co434   2.074   1_554  S
O427        C440   1.263       .  A
O427       Co435   1.965       .  S
O428        C441   1.265       .  A
O428       Co436   2.003   1_554  S
O429        C441   1.287       .  A
O429       Co434   2.090   1_554  S
O430        C440   1.264       .  A
O430       Co433   2.044   1_554  S
O431        C438   1.260       .  A
O431       Co436   1.991   1_554  S
O432        C439   1.260       .  A
O432       Co435   1.950       .  S
Co433       O437   2.195   1_556  S
Co434       O437   2.196   1_556  S
Co435       O437   2.145       .  S
Co436       O437   1.984   1_556  S
C438        C455   1.522       .  S
C441        C442   1.524       .  S
C442        C443   1.388       .  A
C442        C447   1.458       .  A
C443        C444   1.389       .  A
C443        H448   1.084       .  S
C444        C445   1.378       .  A
C444       C1100   1.423       .  S
C445        C446   1.369       .  A
C445        H449   1.087       .  S
C446        C447   1.452       .  A
C446        C510   1.522       .  S
C447        H450   1.081       .  S
C451        C452   1.377       .  A
C451        C456   1.449       .  A
C451        C494   1.518       .  S
C452        C453   1.380       .  A
C452        H457   1.087       .  S
C453        C454   1.393       .  A
C453       C1013   1.440       .  S
C454        C455   1.391       .  A
C454        H458   1.082       .  S
C455        C456   1.456       .  A
C456        H459   1.067       .  S
C460        C461   1.457       .  A
C460        C465   1.393       .  A
C460        C538   1.510       .  S
C461        C462   1.450       .  A
C461        H466   1.081       .  S
C462        C463   1.375       .  A
C463        C464   1.374       .  A
C463        H467   1.089       .  S
C464        C465   1.386       .  A
C464       C1003   1.426       .  S
C465        H468   1.084       .  S
C469        C470   1.396       .  A
C469        C474   1.405       .  A
C469       C1230   1.466       .  S
C470        C471   1.394       .  A
C470        C993   1.464       .  S
C471        C472   1.412       .  A
C471        C980   1.485       .  S
C472        C473   1.413       .  A
C472        C970   1.481       .  S
C473        C474   1.408       .  A
C473       C1000   1.470       .  S
C474       C1063   1.482       .  S
C475        C476   1.449       .  A
C475        C480   1.390       .  A
C475        C657   1.525       .  S
C476        C477   1.452       .  A
C476        H481   1.064       .  S
C477        C478   1.384       .  A
C477        C495   1.526       .  S
C478        C479   1.385       .  A
C478        H482   1.085       .  S
C479        C480   1.397       .  A
C479        C983   1.442       .  S
C480        H483   1.085       .  S
O484        C492   1.265   1_545  A
O484       Co504   1.993       .  S
O485        C493   1.260       .  A
O485       Co505   1.961       .  S
O486        C494   1.270       .  A
O486       Co506   2.065       .  S
O487        C495   1.288       .  A
O487       Co507   2.086       .  S
O488        C494   1.264       .  A
O488       Co505   1.956   1_565  S
O489        C495   1.261       .  A
O489       Co504   2.005       .  S
O490        C493   1.263       .  A
O490       Co507   2.031       .  S
O491        C492   1.290       .  A
O491       Co506   2.089       .  S
C493        C780   1.497       .  S
O496        C509   1.269       .  A
O496       Co504   1.994       .  S
O497        C510   1.263       .  A
O497       Co505   2.025   1_565  S
O498        C511   1.307       .  A
O498       Co506   2.124       .  S
O499        C512   1.287       .  A
O499       Co507   2.029       .  S
O500        C512   1.265       .  A
O500       Co505   2.024       .  S
O501        C511   1.263   1_545  A
O501       Co504   1.956       .  S
O502        C509   1.304       .  A
O502       Co507   2.099       .  S
O503        C510   1.292       .  A
O503       Co506   2.022       .  S
Co504       O508   1.988       .  S
Co505       O508   2.150       .  S
Co506       O508   2.168   1_565  S
Co507       O508   2.177       .  S
C509        C807   1.534       .  S
C512        C544   1.520       .  S
O513        C521   1.267       .  A
O513       Co533   1.960   1_556  S
O514        C522   1.263       .  A
O514       Co534   2.011       .  S
O515        C523   1.280       .  A
O515       Co535   2.000       .  S
O516        C524   1.305       .  A
O516       Co536   2.124       .  S
O517        C523   1.263       .  A
O517       Co534   2.037   1_556  S
O518        C524   1.268       .  A
O518       Co533   1.970       .  S
O519        C522   1.290       .  A
O519       Co536   2.031       .  S
O520        C521   1.304       .  A
O520       Co535   2.118       .  S
C522        C546   1.516       .  S
C523        C553   1.517       .  S
C524        C800   1.527       .  S
O525        C538   1.265       .  A
O525       Co533   1.996       .  S
O526        C539   1.261       .  A
O526       Co534   1.967   1_556  S
O527        C540   1.287       .  A
O527       Co535   2.058       .  S
O528        C541   1.260       .  A
O528       Co536   2.031       .  S
O529        C541   1.261       .  A
O529       Co534   1.959       .  S
O530        C540   1.266       .  A
O530       Co533   2.021   1_556  S
O531        C538   1.285       .  A
O531       Co536   2.075       .  S
O532        C539   1.275       .  A
O532       Co535   2.077       .  S
Co533       O537   1.993       .  S
Co534       O537   2.162       .  S
Co535       O537   2.166   1_556  S
Co536       O537   2.185       .  S
C539        C564   1.521       .  S
C540        C598   1.526       .  S
C541        C778   1.499       .  S
C542        C543   1.395       .  A
C542        C547   1.393       .  A
C542        C960   1.436       .  S
C543        C544   1.390       .  A
C543        H548   1.085       .  S
C544        C545   1.445       .  A
C545        C546   1.444       .  A
C545        H549   1.079       .  S
C546        C547   1.380       .  A
C547        H550   1.086       .  S
C551        C552   1.451       .  A
C551        C556   1.392       .  A
C551        C578   1.510       .  S
C552        C553   1.444       .  A
C552        H557   1.082       .  S
C553        C554   1.382       .  A
C554        C555   1.379       .  A
C554        H558   1.086       .  S
C555        C556   1.391       .  A
C555        C950   1.431       .  S
C556        H559   1.085       .  S
C560        C561   1.383       .  A
C560        C565   1.395       .  A
C560        C940   1.435       .  S
C561        C562   1.382       .  A
C561        H566   1.086       .  S
C562        C563   1.450       .  A
C562        C580   1.521       .  S
C563        C564   1.448       .  A
C563        H567   1.065       .  S
C564        C565   1.388       .  A
C565        H568   1.085       .  S
O569        C577   1.266       .  A
O569       Co589   2.038       .  S
O570        C578   1.286       .  A
O570       Co590   2.085       .  S
O571        C579   1.262       .  A
O571       Co591   1.956       .  S
O572        C580   1.260       .  A
O572       Co592   2.000       .  S
O573        C579   1.267       .  A
O573       Co590   2.057       .  S
O574        C580   1.288       .  A
O574       Co589   2.080       .  S
O575        C578   1.264       .  A
O575       Co592   1.988       .  S
O576        C577   1.263       .  A
O576       Co591   1.972       .  S
C577        C624   1.504       .  S
C579        C678   1.514       .  S
O581        C594   1.306       .  A
O581       Co589   2.103   1_565  S
O582        C595   1.295       .  A
O582       Co590   2.026   1_565  S
O583        C596   1.263   1_545  A
O583       Co591   2.019       .  S
O584        C597   1.264   1_545  A
O584       Co592   1.957       .  S
O585        C597   1.315       .  A
O585       Co590   2.155   1_565  S
O586        C596   1.289       .  A
O586       Co589   2.033   1_565  S
O587        C594   1.268   1_545  A
O587       Co592   1.991       .  S
O588        C595   1.266   1_545  A
O588       Co591   2.027       .  S
Co589       O593   2.169       .  S
Co590       O593   2.178       .  S
Co591       O593   2.151       .  S
Co592       O593   1.988       .  S
C598        C599   1.453       .  A
C598        C603   1.376       .  A
C599        C600   1.461       .  A
C599        H604   1.075       .  S
C600        C601   1.387       .  A
C601        C602   1.394       .  A
C601        H605   1.084       .  S
C602        C603   1.374       .  A
C602        C930   1.426       .  S
C603        H606   1.086       .  S
C607        C608   1.451       .  A
C607        C612   1.397       .  A
C607        C730   1.536       .  S
C608        C609   1.448       .  A
C608        H613   1.075   1_655  S
C609        C610   1.377       .  A
C610        C611   1.379       .  A
C610        H614   1.087       .  S
C611        C612   1.403       .  A
C611        C920   1.449       .  S
C612        H615   1.081       .  S
C616        C617   1.398       .  A
C616        C621   1.399       .  A
C616        C933   1.468       .  S
C617        C618   1.401       .  A
C617       C1203   1.454       .  S
C618        C619   1.400       .  A
C618        C923   1.494       .  S
C619        C620   1.410       .  A
C619        C900   1.469       .  S
C620        C621   1.402       .  A
C620        C910   1.474       .  S
C621        C943   1.480       .  S
C622        C623   1.396       .  A
C622        C627   1.381       .  A
C622        C913   1.454       .  S
C623        C624   1.395       .  A
C623        H628   1.083       .  S
C624        C625   1.442       .  A
C625        C626   1.439       .  A
C625        H629   1.075       .  S
C626        C627   1.382       .  A
C626        C658   1.499       .  S
C627        H630   1.086       .  S
O631        C639   1.294       .  A
O631       Co651   2.037   1_565  S
O632        C640   1.311       .  A
O632       Co652   2.134   1_565  S
O633        C641   1.262   1_545  A
O633       Co653   2.019       .  S
O634        C642   1.262   1_545  A
O634       Co654   1.962       .  S
O635        C641   1.294       .  A
O635       Co652   2.035   1_565  S
O636        C642   1.312       .  A
O636       Co651   2.134   1_565  S
O637        C640   1.264       .  A
O637       Co654   1.958   1_565  S
O638        C639   1.267   1_545  A
O638       Co653   2.022       .  S
O643        C656   1.282       .  A
O643       Co651   2.072       .  S
O644        C657   1.275       .  A
O644       Co652   2.073       .  S
O645        C658   1.262       .  A
O645       Co653   1.960       .  S
O646        C659   1.259       .  A
O646       Co654   1.998       .  S
O647        C659   1.292       .  A
O647       Co652   2.083       .  S
O648        C658   1.260       .  A
O648       Co651   2.033       .  S
O649        C656   1.260       .  A
O649       Co654   1.983       .  S
O650        C657   1.264       .  A
O650       Co653   1.973       .  S
Co651       O655   2.187       .  S
Co652       O655   2.171       .  S
Co653       O655   2.151       .  S
Co654       O655   1.990       .  S
C656        C669   1.499       .  S
C659        C660   1.523       .  S
C660        C661   1.460       .  A
C660        C665   1.366       .  A
C661        C662   1.465       .  A
C661        H666   1.076       .  S
C662        C663   1.385       .  A
C662        C748   1.534       .  S
C663        C664   1.387       .  A
C663        H667   1.084       .  S
C664        C665   1.371       .  A
C664        C990   1.412       .  S
C665        H668   1.087       .  S
C669        C670   1.455       .  A
C669        C674   1.392       .  A
C670        C671   1.443       .  A
C670        H675   1.079       .  S
C671        C672   1.364       .  A
C671        C732   1.509       .  S
C672        C673   1.379       .  A
C672        H676   1.081       .  S
C673        C674   1.385       .  A
C673        C903   1.432       .  S
C674        H677   1.085       .  S
C678        C679   1.448       .  A
C678        C683   1.381       .  A
C679        C680   1.450       .  A
C679        H684   1.070       .  S
C680        C681   1.390       .  A
C680        C718   1.521       .  S
C681        C682   1.394       .  A
C681        H685   1.083       .  S
C682        C683   1.381       .  A
C682        C890   1.440       .  S
C683        H686   1.087       .  S
C687        C688   1.416       .  A
C687        C692   1.409       .  A
C687       C1243   1.480       .  S
C688        C689   1.407       .  A
C688       C1123   1.475       .  S
C689        C690   1.411       .  A
C689        C880   1.481       .  S
C690        C691   1.419       .  A
C690        C870   1.490       .  S
C691        C692   1.400       .  A
C691        C893   1.473       .  S
C692        C953   1.488       .  S
O693        C701   1.264   1_545  A
O693       Co713   1.971       .  S
O694        C702   1.258       .  A
O694       Co714   2.003       .  S
O695        C703   1.295       .  A
O695       Co715   2.047       .  S
O696        C704   1.306       .  A
O696       Co716   2.120       .  S
O697        C703   1.265       .  A
O697       Co714   2.014   1_565  S
O698        C704   1.270       .  A
O698       Co713   1.989       .  S
O699        C702   1.286       .  A
O699       Co716   2.039       .  S
O700        C701   1.307       .  A
O700       Co715   2.109       .  S
C702        C755   1.517       .  S
C704        C809   1.535       .  S
O705        C718   1.260       .  A
O705       Co713   1.987       .  S
O706        C719   1.263       .  A
O706       Co714   1.971   1_565  S
O707        C720   1.289       .  A
O707       Co715   2.108       .  S
O708        C721   1.271       .  A
O708       Co716   2.053       .  S
O709        C721   1.266       .  A
O709       Co714   1.969       .  S
O710        C720   1.267   1_545  A
O710       Co713   2.012       .  S
O711        C718   1.289       .  A
O711       Co716   2.099       .  S
O712        C719   1.271       .  A
O712       Co715   2.002       .  S
Co713       O717   1.990       .  S
Co714       O717   2.182       .  S
Co715       O717   2.176   1_565  S
Co716       O717   2.191       .  S
C721        C773   1.510       .  S
O722        C730   1.265   1_455  A
O722       Co742   2.011       .  S
O723        C731   1.266       .  A
O723       Co743   1.979       .  S
O724        C732   1.271       .  A
O724       Co744   2.005       .  S
O725        C733   1.286       .  A
O725       Co745   2.083       .  S
O726        C732   1.264       .  A
O726       Co743   1.973   1_655  S
O727        C733   1.257       .  A
O727       Co742   1.982       .  S
O728        C731   1.267       .  A
O728       Co745   2.037       .  S
O729        C730   1.288       .  A
O729       Co744   2.103       .  S
C731        C769   1.507       .  S
C733        C764   1.504       .  S
O734        C747   1.267       .  A
O734       Co742   1.990       .  S
O735        C748   1.263       .  A
O735       Co743   2.011   1_655  S
O736        C749   1.308       .  A
O736       Co744   2.121       .  S
O737        C750   1.283       .  A
O737       Co745   2.030       .  S
O738        C750   1.258       .  A
O738       Co743   2.003       .  S
O739        C749   1.260   1_455  A
O739       Co742   1.959       .  S
O740        C747   1.301       .  A
O740       Co745   2.103       .  S
O741        C748   1.296       .  A
O741       Co744   2.045       .  S
Co742       O746   2.016       .  S
Co743       O746   2.197       .  S
Co744       O746   2.178   1_655  S
Co745       O746   2.184       .  S
C747        C818   1.525       .  S
C750        C753   1.511       .  S
C751        C752   1.395       .  A
C751        C756   1.400       .  A
C751        C860   1.437       .  S
C752        C753   1.387       .  A
C752        H757   1.085       .  S
C753        C754   1.440       .  A
C754        C755   1.439       .  A
C754        H758   1.078       .  S
C755        C756   1.384       .  A
C756        H759   1.086       .  S
C760        C761   1.388       .  A
C760        C765   1.377       .  A
C760        C883   1.424       .  S
C761        C762   1.388       .  A
C761        H766   1.086       .  S
C762        C763   1.451       .  A
C763        C764   1.453       .  A
C763        H767   1.081       .  S
C764        C765   1.380       .  A
C765        H768   1.088       .  S
C769        C770   1.399       .  A
C769        C774   1.443       .  A
C770        C771   1.397       .  A
C770        H775   1.085       .  S
C771        C772   1.395       .  A
C771        C873   1.460       .  S
C772        C773   1.390       .  A
C772        H776   1.086       .  S
C773        C774   1.436       .  A
C774        H777   1.078       .  S
C778        C779   1.436       .  A
C778        C783   1.386       .  A
C779        C780   1.441       .  A
C779        H784   1.079       .  S
C780        C781   1.394       .  A
C781        C782   1.390       .  A
C781        H785   1.085       .  S
C782        C783   1.384       .  A
C782        C973   1.449       .  S
C783        H786   1.086       .  S
C787        C788   1.384       .  A
C787        C792   1.440       .  A
C788        C789   1.385       .  A
C788        H793   1.086       .  S
C789        C790   1.396       .  A
C789       C1083   1.455       .  S
C790        C791   1.396       .  A
C790        H794   1.084       .  S
C791        C792   1.444       .  A
C792        H795   1.078       .  S
C796        C797   1.374       .  A
C796        C801   1.387       .  A
C796        C850   1.436       .  S
C797        C798   1.381       .  A
C797        H802   1.086       .  S
C798        C799   1.449       .  A
C799        C800   1.453       .  A
C799        H803   1.079       .  S
C800        C801   1.396       .  A
C801        H804   1.084       .  S
C805        C806   1.373       .  A
C805        C810   1.385       .  A
C805        C840   1.435       .  S
C806        C807   1.385       .  A
C806        H811   1.085       .  S
C807        C808   1.458       .  A
C808        C809   1.459       .  A
C808        H812   1.076       .  S
C809        C810   1.394       .  A
C810        H813   1.084       .  S
C814        C815   1.386       .  A
C814        C819   1.375       .  A
C814        C833   1.438       .  S
C815        C816   1.396       .  A
C815        H820   1.084       .  S
C816        C817   1.456       .  A
C817        C818   1.454       .  A
C817        H821   1.080       .  S
C818        C819   1.385       .  A
C819        H822   1.085       .  S
C823        C824   1.414       .  A
C823        C828   1.413       .  A
C823       C1073   1.484       .  S
C824        C825   1.409       .  A
C824        C853   1.485       .  S
C825        C826   1.409       .  A
C825        C963   1.479       .  S
C826        C827   1.408       .  A
C826        C843   1.486       .  S
C827        C828   1.417       .  A
C827        C863   1.480       .  S
C828        C830   1.487       .  S
C829        C830   1.416       .  A
C829        C834   1.389       .  A
C829       Br836   1.917       .  S
C830        C831   1.420       .  A
C831        C832   1.396       .  A
C831       Br838   1.907       .  S
C832        C833   1.392       .  A
C832       Br837   1.935       .  S
C833        C834   1.398       .  A
C834       Br835   1.945       .  S
C839        C840   1.393       .  A
C839        C844   1.394       .  A
C839       Br846   1.936       .  S
C840        C841   1.393       .  A
C841        C842   1.391       .  A
C841       Br848   1.942       .  S
C842        C843   1.420       .  A
C842       Br847   1.914       .  S
C843        C844   1.417       .  A
C844       Br845   1.907       .  S
C849        C850   1.394       .  A
C849        C854   1.392       .  A
C849       Br856   1.942       .  S
C850        C851   1.396       .  A
C851        C852   1.394       .  A
C851       Br858   1.939       .  S
C852        C853   1.416       .  A
C852       Br857   1.908       .  S
C853        C854   1.419       .  A
C854       Br855   1.911       .  S
C859        C860   1.398       .  A
C859        C864   1.380       .  A
C859       Br866   1.947       .  S
C860        C861   1.395       .  A
C861        C862   1.398       .  A
C861       Br868   1.928       .  S
C862        C863   1.419       .  A
C862       Br867   1.927       .  S
C863        C864   1.416       .  A
C864       Br865   1.915       .  S
C869        C870   1.401       .  A
C869        C874   1.377       .  A
C869       Br876   1.915       .  S
C870        C871   1.423       .  A
C871        C872   1.407       .  A
C871       Br878   1.927       .  S
C872        C873   1.404       .  A
C872       Br877   1.930       .  S
C873        C874   1.414       .  A
C874       Br875   1.936       .  S
C879        C880   1.412       .  A
C879        C884   1.374       .  A
C879       Br886   1.911       .  S
C880        C881   1.422       .  A
C881        C882   1.397       .  A
C881       Br888   1.911       .  S
C882        C883   1.390       .  A
C882       Br887   1.933       .  S
C883        C884   1.397       .  A
C884       Br885   1.955       .  S
C889        C890   1.418       .  A
C889        C894   1.378       .  A
C889       Br896   1.934       .  S
C890        C891   1.388       .  A
C891        C892   1.395       .  A
C891       Br898   1.938       .  S
C892        C893   1.430       .  A
C892       Br897   1.913       .  S
C893        C894   1.397       .  A
C894       Br895   1.920       .  S
C899        C900   1.390       .  A
C899        C904   1.381       .  A
C899       Br906   1.925       .  S
C900        C901   1.398       .  A
C901        C902   1.398       .  A
C901       Br908   1.918       .  S
C902        C903   1.436       .  A
C902       Br907   1.937       .  S
C903        C904   1.418       .  A
C904       Br905   1.939       .  S
C909        C910   1.421       .  A
C909        C914   1.395       .  A
C909       Br916   1.913       .  S
C910        C911   1.398       .  A
C911        C912   1.383       .  A
C911       Br918   1.920       .  S
C912        C913   1.423       .  A
C912       Br917   1.934       .  S
C913        C914   1.397       .  A
C914       Br915   1.935       .  S
C919        C920   1.385       .  A
C919        C924   1.393       .  A
C919       Br926   1.935       .  S
C920        C921   1.414       .  A
C921        C922   1.397       .  A
C921       Br928   1.943       .  S
C922        C923   1.413       .  A
C922       Br927   1.921       .  S
C923        C924   1.421       .  A
C924       Br925   1.900       .  S
C929        C930   1.402       .  A
C929        C934   1.388       .  A
C929       Br936   1.941       .  S
C930        C931   1.386       .  A
C931        C932   1.387       .  A
C931       Br938   1.939       .  S
C932        C933   1.422       .  A
C932       Br937   1.913       .  S
C933        C934   1.411       .  A
C934       Br935   1.916       .  S
C939        C940   1.389       .  A
C939        C944   1.395       .  A
C939       Br946   1.935       .  S
C940        C941   1.407       .  A
C941        C942   1.384       .  A
C941       Br948   1.944       .  S
C942        C943   1.408       .  A
C942       Br947   1.910       .  S
C943        C944   1.423       .  A
C944       Br945   1.914       .  S
C949        C950   1.394       .  A
C949        C954   1.397       .  A
C949       Br956   1.932       .  S
C950        C951   1.398       .  A
C951        C952   1.383       .  A
C951       Br958   1.950       .  S
C952        C953   1.415       .  A
C952       Br957   1.907       .  S
C953        C954   1.419       .  A
C954       Br955   1.912       .  S
C959        C960   1.392       .  A
C959        C964   1.394       .  A
C959       Br966   1.931       .  S
C960        C961   1.400       .  A
C961        C962   1.388       .  A
C961       Br968   1.946       .  S
C962        C963   1.416       .  A
C962       Br967   1.914       .  S
C963        C964   1.418       .  A
C964       Br965   1.925       .  S
C969        C970   1.395       .  A
C969        C974   1.373       .  A
C969       Br976   1.914       .  S
C970        C971   1.426       .  A
C971        C972   1.400       .  A
C971       Br978   1.914       .  S
C972        C973   1.397       .  A
C972       Br977   1.933       .  S
C973        C974   1.420       .  A
C974       Br975   1.935       .  S
C979        C980   1.412       .  A
C979        C984   1.388       .  A
C979       Br986   1.917       .  S
C980        C981   1.424       .  A
C981        C982   1.395       .  A
C981       Br988   1.913       .  S
C982        C983   1.389       .  A
C982       Br987   1.937       .  S
C983        C984   1.410       .  A
C984       Br985   1.943       .  S
C989        C990   1.401       .  A
C989        C994   1.388       .  A
C989       Br996   1.937       .  S
C990        C991   1.384       .  A
C991        C992   1.377       .  A
C991       Br998   1.946       .  S
C992        C993   1.419       .  A
C992       Br997   1.899       .  S
C993        C994   1.408       .  A
C994       Br995   1.914       .  S
C999       C1000   1.408       .  A
C999       C1004   1.388       .  A
C999      Br1006   1.914       .  S
C1000      C1001   1.409       .  A
C1001      C1002   1.382       .  A
C1001     Br1008   1.920       .  S
C1002      C1003   1.414       .  A
C1002     Br1007   1.948       .  S
C1003      C1004   1.397       .  A
C1004     Br1005   1.933       .  S
C1009      C1010   1.423       .  A
C1009      C1014   1.391       .  A
C1009     Br1016   1.893       .  S
C1010      C1011   1.399       .  A
C1011      C1012   1.386       .  A
C1011     Br1018   1.914       .  S
C1012      C1013   1.418       .  A
C1012     Br1017   1.934       .  S
C1013      C1014   1.388       .  A
C1014     Br1015   1.942       .  S
C1019      C1020   1.425       .  A
C1019      C1024   1.399       .  A
C1019     Br1026   1.906       .  S
C1020      C1021   1.394       .  A
C1021      C1022   1.375       .  A
C1021     Br1028   1.910       .  S
C1022      C1023   1.419       .  A
C1022     Br1027   1.933       .  S
C1023      C1024   1.394       .  A
C1024     Br1025   1.935       .  S
C1029      C1030   1.418       .  A
C1029      C1034   1.387       .  A
C1029     Br1036   1.906       .  S
C1030      C1031   1.411       .  A
C1031      C1032   1.387       .  A
C1031     Br1038   1.910       .  S
C1032      C1033   1.401       .  A
C1032     Br1037   1.941       .  S
C1033      C1034   1.389       .  A
C1034     Br1035   1.940       .  S
C1039      C1040   1.389       .  A
C1039      C1044   1.387       .  A
C1039     Br1046   1.940       .  S
C1040      C1041   1.402       .  A
C1041      C1042   1.384       .  A
C1041     Br1048   1.937       .  S
C1042      C1043   1.404       .  A
C1042     Br1047   1.912       .  S
C1043      C1044   1.419       .  A
C1044     Br1045   1.901       .  S
C1049      C1050   1.391       .  A
C1049      C1054   1.391       .  A
C1049     Br1056   1.939       .  S
C1050      C1051   1.416       .  A
C1051      C1052   1.387       .  A
C1051     Br1058   1.935       .  S
C1052      C1053   1.401       .  A
C1052     Br1057   1.918       .  S
C1053      C1054   1.421       .  A
C1054     Br1055   1.907       .  S
C1059      C1060   1.393       .  A
C1059      C1064   1.390       .  A
C1059     Br1066   1.939       .  S
C1060      C1061   1.403       .  A
C1061      C1062   1.388       .  A
C1061     Br1068   1.942       .  S
C1062      C1063   1.413       .  A
C1062     Br1067   1.916       .  S
C1063      C1064   1.419       .  A
C1064     Br1065   1.910       .  S
C1069      C1070   1.400       .  A
C1069      C1074   1.387       .  A
C1069     Br1076   1.948       .  S
C1070      C1071   1.394       .  A
C1071      C1072   1.398       .  A
C1071     Br1078   1.929       .  S
C1072      C1073   1.419       .  A
C1072     Br1077   1.926       .  S
C1073      C1074   1.418       .  A
C1074     Br1075   1.914       .  S
C1079      C1080   1.423       .  A
C1079      C1084   1.399       .  A
C1079     Br1086   1.911       .  S
C1080      C1081   1.397       .  A
C1081      C1082   1.381       .  A
C1081     Br1088   1.914       .  S
C1082      C1083   1.419       .  A
C1082     Br1087   1.933       .  S
C1083      C1084   1.398       .  A
C1084     Br1085   1.935       .  S
C1089      C1090   1.397       .  A
C1089      C1094   1.380       .  A
C1089     Br1096   1.911       .  S
C1090      C1091   1.424       .  A
C1091      C1092   1.397       .  A
C1091     Br1098   1.904       .  S
C1092      C1093   1.392       .  A
C1092     Br1097   1.937       .  S
C1093      C1094   1.415       .  A
C1094     Br1095   1.934       .  S
C1099      C1100   1.403       .  A
C1099      C1104   1.390       .  A
C1099     Br1106   1.936       .  S
C1100      C1101   1.389       .  A
C1101      C1102   1.384       .  A
C1101     Br1108   1.944       .  S
C1102      C1103   1.417       .  A
C1102     Br1107   1.893       .  S
C1103      C1104   1.408       .  A
C1104     Br1105   1.914       .  S
C1109      C1110   1.421       .  A
C1109      C1114   1.389       .  A
C1109     Br1116   1.900       .  S
C1110      C1111   1.406       .  A
C1111      C1112   1.388       .  A
C1111     Br1118   1.915       .  S
C1112      C1113   1.411       .  A
C1112     Br1117   1.938       .  S
C1113      C1114   1.386       .  A
C1114     Br1115   1.939       .  S
C1119      C1120   1.404       .  A
C1119      C1124   1.380       .  A
C1119     Br1126   1.946       .  S
C1120      C1121   1.390       .  A
C1121      C1122   1.396       .  A
C1121     Br1128   1.932       .  S
C1122      C1123   1.424       .  A
C1122     Br1127   1.923       .  S
C1123      C1124   1.408       .  A
C1124     Br1125   1.910       .  S
C1129      C1130   1.407       .  A
C1129      C1134   1.385       .  A
C1129     Br1136   1.917       .  S
C1130      C1131   1.424       .  A
C1131      C1132   1.395       .  A
C1131     Br1138   1.914       .  S
C1132      C1133   1.391       .  A
C1132     Br1137   1.938       .  S
C1133      C1134   1.412       .  A
C1134     Br1135   1.940       .  S
C1139      C1140   1.397       .  A
C1139      C1144   1.399       .  A
C1139     Br1146   1.933       .  S
C1140      C1141   1.421       .  A
C1141      C1142   1.376       .  A
C1141     Br1148   1.935       .  S
C1142      C1143   1.396       .  A
C1142     Br1147   1.914       .  S
C1143      C1144   1.424       .  A
C1144     Br1145   1.912       .  S
C1149      C1150   1.418       .  A
C1149      C1154   1.382       .  A
C1149     Br1156   1.907       .  S
C1150      C1151   1.404       .  A
C1151      C1152   1.379       .  A
C1151     Br1158   1.913       .  S
C1152      C1153   1.401       .  A
C1152     Br1157   1.938       .  S
C1153      C1154   1.386       .  A
C1154     Br1155   1.940       .  S
C1159      C1160   1.398       .  A
C1159      C1164   1.393       .  A
C1159     Br1166   1.939       .  S
C1160      C1161   1.404       .  A
C1161      C1162   1.390       .  A
C1161     Br1168   1.941       .  S
C1162      C1163   1.413       .  A
C1162     Br1167   1.916       .  S
C1163      C1164   1.418       .  A
C1164     Br1165   1.912       .  S
C1169      C1170   1.386       .  A
C1169      C1174   1.380       .  A
C1169     Br1176   1.943       .  S
C1170      C1171   1.401       .  A
C1171      C1172   1.390       .  A
C1171     Br1178   1.938       .  S
C1172      C1173   1.410       .  A
C1172     Br1177   1.914       .  S
C1173      C1174   1.418       .  A
C1174     Br1175   1.903       .  S
C1179      C1180   1.392       .  A
C1179      C1184   1.383       .  A
C1179     Br1186   1.933       .  S
C1180      C1181   1.409       .  A
C1181      C1182   1.378       .  A
C1181     Br1188   1.951       .  S
C1182      C1183   1.411       .  A
C1182     Br1187   1.916       .  S
C1183      C1184   1.409       .  A
C1184     Br1185   1.913       .  S
C1189      C1190   1.389       .  A
C1189      C1194   1.391       .  A
C1189     Br1196   1.938       .  S
C1190      C1191   1.404       .  A
C1191      C1192   1.386       .  A
C1191     Br1198   1.940       .  S
C1192      C1193   1.406       .  A
C1192     Br1197   1.910       .  S
C1193      C1194   1.422       .  A
C1194     Br1195   1.908       .  S
C1199      C1200   1.400       .  A
C1199      C1204   1.381       .  A
C1199     Br1206   1.936       .  S
C1200      C1201   1.386       .  A
C1201      C1202   1.378       .  A
C1201     Br1208   1.944       .  S
C1202      C1203   1.418       .  A
C1202     Br1207   1.907       .  S
C1203      C1204   1.402       .  A
C1204     Br1205   1.914       .  S
C1209      C1210   1.387       .  A
C1209      C1214   1.383       .  A
C1209     Br1216   1.943       .  S
C1210      C1211   1.399       .  A
C1211      C1212   1.382       .  A
C1211     Br1218   1.940       .  S
C1212      C1213   1.408       .  A
C1212     Br1217   1.910       .  S
C1213      C1214   1.421       .  A
C1214     Br1215   1.902       .  S
C1219      C1220   1.391       .  A
C1219      C1224   1.387       .  A
C1219     Br1226   1.940       .  S
C1220      C1221   1.400       .  A
C1221      C1222   1.382       .  A
C1221     Br1228   1.938       .  S
C1222      C1223   1.407       .  A
C1222     Br1227   1.913       .  S
C1223      C1224   1.420       .  A
C1224     Br1225   1.906       .  S
C1229      C1230   1.404       .  A
C1229      C1234   1.380       .  A
C1229     Br1236   1.912       .  S
C1230      C1231   1.419       .  A
C1231      C1232   1.389       .  A
C1231     Br1238   1.909       .  S
C1232      C1233   1.388       .  A
C1232     Br1237   1.938       .  S
C1233      C1234   1.403       .  A
C1234     Br1235   1.941       .  S
C1239      C1240   1.397       .  A
C1239      C1244   1.396       .  A
C1239     Br1246   1.937       .  S
C1240      C1241   1.405       .  A
C1241      C1242   1.382       .  A
C1241     Br1248   1.942       .  S
C1242      C1243   1.405       .  A
C1242     Br1247   1.913       .  S
C1243      C1244   1.421       .  A
C1244     Br1245   1.917       .  S
C1249      C1250   1.418       .  A
C1249      C1254   1.383       .  A
C1249     Br1256   1.913       .  S
C1250      C1251   1.421       .  A
C1251      C1252   1.378       .  A
C1251     Br1258   1.913       .  S
C1252      C1253   1.383       .  A
C1252     Br1257   1.944       .  S
C1253      C1254   1.391       .  A
C1254     Br1255   1.944       .  S
C1259      C1260   1.422       .  A
C1259      C1264   1.386       .  A
C1259     Br1266   1.912       .  S
C1260      C1261   1.419       .  A
C1261      C1262   1.379       .  A
C1261     Br1268   1.915       .  S
C1262      C1263   1.387       .  A
C1262     Br1267   1.945       .  S
C1263      C1264   1.389       .  A
C1264     Br1265   1.942       .  S
C1269      C1270   1.420       .  A
C1269      C1274   1.385       .  A
C1269     Br1276   1.912       .  S
C1270      C1271   1.420       .  A
C1271      C1272   1.380       .  A
C1271     Br1278   1.915       .  S
C1272      C1273   1.386       .  A
C1272     Br1277   1.945       .  S
C1273      C1274   1.389       .  A
C1274     Br1275   1.942       .  S
C1279      C1280   1.400       .  A
C1279      C1284   1.389       .  A
C1279     Br1286   1.950       .  S
C1280      C1281   1.388       .  A
C1281      C1282   1.392       .  A
C1281     Br1288   1.933       .  S
C1282      C1283   1.422       .  A
C1282     Br1287   1.920       .  S
C1283      C1284   1.420       .  A
C1284     Br1285   1.912       .  S
C1289      C1290   1.389       .  A
C1289      C1294   1.392       .  A
C1289     Br1296   1.934       .  S
C1290      C1291   1.399       .  A
C1291      C1292   1.388       .  A
C1291     Br1298   1.950       .  S
C1292      C1293   1.421       .  A
C1292     Br1297   1.912       .  S
C1293      C1294   1.421       .  A
C1294     Br1295   1.920       .  S
C1299      C1300   1.388       .  A
C1299      C1304   1.391       .  A
C1299     Br1306   1.933       .  S
C1300      C1301   1.400       .  A
C1301      C1302   1.386       .  A
C1301     Br1308   1.952       .  S
C1302      C1303   1.420       .  A
C1302     Br1307   1.912       .  S
C1303      C1304   1.421       .  A
C1304     Br1305   1.921       .  S
