geometry optimzed in LAMMPS
_audit_creation_date              2020-11-30 
_audit_creation_method            'lammps2cif' 
_symmetry_space_group_name_H-M    'P1' 
_symmetry_Int_Tables_number       1 
_symmetry_cell_setting            triclinic 
loop_ 
_symmetry_equiv_pos_as_xyz 
  x,y,z 
_cell_length_a                    54.53770003 
_cell_length_b                    54.301412061911286 
_cell_length_c                    55.07361800808611 
_cell_angle_alpha                 90.36701500701147 
_cell_angle_beta                  89.40750734411412 
_cell_angle_gamma                 89.56639629669695 
loop_ 
_atom_site_label 
_atom_site_type_symbol 
_atom_site_fract_x 
_atom_site_fract_y 
_atom_site_fract_z 
_atom_site_charge 
O1          O  0.26906480  0.67880272  0.78043322    -0.79700
O2          O  0.28295453  0.77487448  0.75340591    -0.79700
O3          O  0.26764446  0.70701206  0.69894286    -0.79700
O4          O  0.25041048  0.75255523  0.80853435    -0.79700
O5          O  0.28500332  0.74183354  0.71026182    -0.79800
O6          O  0.27719513  0.72795174  0.79026136    -0.79700
O7          O  0.25171283  0.78905170  0.77523481    -0.79700
O8          O  0.27983674  0.70006040  0.74710832    -0.79700
C9          C  0.28108831  0.68031561  0.76032311     1.10000
C10         C  0.27351766  0.79125325  0.76695622     1.09900
C11         C  0.28306107  0.72387703  0.69489460     1.10000
C12         C  0.27139745  0.74231279  0.80770520     1.09900
O13         O  0.23104002  0.70954511  0.80653212    -0.79700
O14         O  0.24448393  0.76176543  0.70318625    -0.79800
O15         O  0.23442842  0.68400563  0.72743818    -0.79700
O16         O  0.20577195  0.77469498  0.75614530    -0.79700
O17         O  0.23766797  0.78414970  0.73236721    -0.79800
O18         O  0.22319982  0.68648491  0.76521480    -0.79700
O19         O  0.20332048  0.73712913  0.79466198    -0.79700
O20         O  0.22340564  0.72864027  0.70789401    -0.79800
Co21       Co  0.25064308  0.70788507  0.77559260     1.51500
Co22       Co  0.25942637  0.75534520  0.73525632     1.51700
Co23       Co  0.25105308  0.71612604  0.72824396     1.51600
Co24       Co  0.22780551  0.76132122  0.78170650     1.51500
O25         O  0.23855916  0.73443592  0.75735451    -1.41600
C26         C  0.21080589  0.72118637  0.81003536     1.09900
C27         C  0.22737287  0.74807932  0.69603956     1.10000
C28         C  0.22280203  0.67534619  0.74510536     1.09900
C29         C  0.21567719  0.78791343  0.73963772     1.09900
O30         O  0.71532704  0.21633584  0.69547793    -0.79700
O31         O  0.73878033  0.20287349  0.79218571    -0.79700
O32         O  0.79344748  0.22510890  0.73192616    -0.79700
O33         O  0.68794729  0.23523874  0.76594434    -0.79700
O34         O  0.77699224  0.19823248  0.75654595    -0.79800
O35         O  0.70583705  0.20530654  0.74448307    -0.79700
O36         O  0.71671286  0.23502123  0.80466028    -0.79700
O37         O  0.75434835  0.21485731  0.70679624    -0.79700
C38         C  0.73719848  0.20882822  0.69185148     1.10000
C39         C  0.72363356  0.21268242  0.80709629     1.09900
C40         C  0.79424185  0.20433032  0.74217828     1.10000
C41         C  0.68766441  0.21348944  0.75703016     1.09900
O42         O  0.69503513  0.25205878  0.72501306    -0.79700
O43         O  0.79421939  0.24573247  0.77237655    -0.79800
O44         O  0.77757829  0.25771084  0.69782719    -0.79700
O45         O  0.74067503  0.27962692  0.78949128    -0.79700
O46         O  0.75976622  0.24852862  0.80703176    -0.79800
O47         O  0.73729025  0.25953465  0.70344942    -0.79700
O48         O  0.70887195  0.28106655  0.74886904    -0.79700
O49         O  0.78020068  0.27318136  0.74619292    -0.79800
Co50       Co  0.72457233  0.23054458  0.72573707     1.51500
Co51       Co  0.76565701  0.22404155  0.78019720     1.51700
Co52       Co  0.76398496  0.24618246  0.72760790     1.51600
Co53       Co  0.71552937  0.25744328  0.77569544     1.51500
O54         O  0.74219004  0.23968371  0.75612233    -1.41600
C55         C  0.69361092  0.27389247  0.73314510     1.09900
C56         C  0.79656765  0.26603278  0.76106714     1.10000
C57         C  0.75660723  0.26441704  0.69048338     1.09900
C58         C  0.75316558  0.27105379  0.80686708     1.09900
O59         O  0.70610392  0.76706212  0.22379004    -0.79700
O60         O  0.79938477  0.74962704  0.21194847    -0.79700
O61         O  0.73781089  0.80392174  0.22340597    -0.79700
O62         O  0.76461278  0.70716710  0.23485867    -0.79700
O63         O  0.76681349  0.78840046  0.19997804    -0.79800
O64         O  0.72896174  0.71777438  0.21962423    -0.79700
O65         O  0.80590039  0.72814858  0.24549160    -0.79700
O66         O  0.69933182  0.79643356  0.25150300    -0.79700
C67         C  0.69220765  0.78472291  0.23264151     1.10000
C68         C  0.81168127  0.73373486  0.22371004     1.09900
C69         C  0.75057801  0.80461613  0.20408626     1.10000
C70         C  0.74722717  0.70310870  0.22025358     1.09900
O71         O  0.73775019  0.71636963  0.27092951    -0.79700
O72         O  0.77750801  0.81144229  0.24605916    -0.79800
O73         O  0.71602018  0.76013306  0.27939355    -0.79700
O74         O  0.78628585  0.75594393  0.28519316    -0.79700
O75         O  0.80865154  0.77403330  0.25663122    -0.79800
O76         O  0.69451604  0.73390094  0.25678650    -0.79700
O77         O  0.77544489  0.70535501  0.28243380    -0.79700
O78         O  0.74752674  0.80381520  0.27277478    -0.79800
Co79       Co  0.72591512  0.74311791  0.24593676     1.51500
Co80       Co  0.78636423  0.77953906  0.22878001     1.51700
Co81       Co  0.73053789  0.78050576  0.25069710     1.51600
Co82       Co  0.77266776  0.73251527  0.26067293     1.51500
O83         O  0.75910039  0.75890360  0.24213754    -1.41600
C84         C  0.75217250  0.70259274  0.28373599     1.09900
C85         C  0.76471432  0.81747589  0.26479489     1.10000
C86         C  0.69680261  0.74628223  0.27645430     1.09900
C87         C  0.80534836  0.76779936  0.27866222     1.09900
C88         C  0.50240205  0.99906579  0.98122531     0.02700
C89         C  0.52005785  0.00013168  0.99975609     0.02700
C90         C  0.51924297  0.98299912  0.01901953     0.02700
C91         C  0.50046046  0.96509614  0.01987417     0.02700
C92         C  0.48186354  0.96492897  0.00192181     0.02700
C93         C  0.48306443  0.98198775  0.98251916     0.02700
C94         C  0.69123607  0.02061719  0.16647288     0.80600
N95         N  0.67296187  0.02283167  0.14997066    -0.77700
C96         C  0.66640153  0.00327234  0.13611860     0.83100
N97         N  0.67838327  0.98147664  0.13853963    -0.77600
C98         C  0.69687976  0.97898015  0.15457656     0.83200
N99         N  0.70328901  0.99862299  0.16866212    -0.79300
C100        C  0.66864119  0.18033711  0.02454687     0.80600
N101        N  0.67446017  0.18503858  0.00087432    -0.77700
C102        C  0.66288868  0.17265572  0.98273030     0.83100
N103        N  0.64597048  0.15540961  0.98840283    -0.77600
C104        C  0.64052237  0.15012418  0.01187309     0.83200
N105        N  0.65172247  0.16280952  0.02986931    -0.79300
C106        C  0.31793994  0.01259208  0.83370115     0.80600
N107        N  0.33488041  0.00885666  0.85123291    -0.77700
C108        C  0.34243727  0.98568459  0.85683698     0.83100
N109        N  0.33306211  0.96615664  0.84465393    -0.77600
C110        C  0.31640625  0.96962982  0.82676081     0.83200
N111        N  0.30873653  0.99287342  0.82148965    -0.79300
C112        C  0.51820749  0.16194985  0.82593322     0.80600
N113        N  0.49725693  0.17443795  0.81971278    -0.77700
C114        C  0.47603713  0.17070802  0.83264548     0.83100
N115        N  0.47604043  0.15472842  0.85140894    -0.77600
C116        C  0.49653144  0.14222915  0.85753133     0.83200
N117        N  0.51758720  0.14589629  0.84479487    -0.79300
C118        C  0.46468109  0.84018386  0.21054947     0.80600
N119        N  0.48687065  0.83189356  0.21837865    -0.77700
C120        C  0.50750439  0.83557139  0.20460037     0.83100
N121        N  0.50571534  0.84765459  0.18300553    -0.77600
C122        C  0.48353183  0.85594689  0.17526851     0.83200
N123        N  0.46333084  0.85214390  0.18913442    -0.79300
C124        C  0.32000280  0.79907398  0.01957057     0.80600
N125        N  0.31683416  0.79107009  0.99630475    -0.77700
C126        C  0.33163444  0.79954675  0.97815650     0.83100
N127        N  0.34946004  0.81593806  0.98341364    -0.77600
C128        C  0.35309373  0.82366011  0.00655254     0.83200
N129        N  0.33830341  0.81521953  0.02457205    -0.79300
C130        C  0.97966304  0.48986360  0.00827984     0.02700
C131        C  0.97577986  0.47516194  0.98741982     0.02700
C132        C  0.99286406  0.47536860  0.96782483     0.02700
C133        C  0.01398248  0.49037619  0.96929462     0.02700
C134        C  0.01842280  0.50430898  0.99058668     0.02700
C135        C  0.00129492  0.50387061  0.01002659     0.02700
C136        C  0.17936176  0.66879569  0.99194935     0.80600
N137        N  0.19006179  0.67103423  0.01412346    -0.77700
C138        C  0.18133530  0.65804124  0.03353601     0.83100
N139        N  0.16202014  0.64253671  0.03043937    -0.77600
C140        C  0.15144724  0.64012322  0.00826652     0.83200
N141        N  0.16011102  0.65338577  0.98934904    -0.79300
C142        C  0.16846137  0.50364086  0.80584884     0.80600
N143        N  0.15214091  0.49941239  0.82404195    -0.77700
C144        C  0.15249544  0.47789558  0.83636445     0.83100
N145        N  0.16928263  0.46036904  0.83019776    -0.77600
C146        C  0.18572193  0.46422740  0.81187922     0.83200
N147        N  0.18538132  0.48602245  0.79977260    -0.79300
C148        C  0.98383336  0.65444223  0.18703036     0.80600
N149        N  0.97947352  0.63864775  0.16841610    -0.77700
C150        C  0.99803463  0.62625345  0.15729290     0.83100
N151        N  0.02134559  0.62975840  0.16474280    -0.77600
C152        C  0.02603836  0.64541399  0.18337250     0.83200
N153        N  0.00723777  0.65785663  0.19454920    -0.79300
C154        C  0.81660919  0.48119164  0.16505742     0.80600
N155        N  0.80451913  0.50067290  0.17569063    -0.77700
C156        C  0.80828300  0.52412866  0.16743338     0.83100
N157        N  0.82458110  0.52784186  0.14885913    -0.77600
C158        C  0.83695069  0.50855779  0.13847933     0.83200
N159        N  0.83255804  0.48540896  0.14650166    -0.79300
C160        C  0.01679251  0.30041711  0.81233846     0.80600
N161        N  0.99358917  0.29704942  0.80388192    -0.77700
C162        C  0.97496030  0.31250335  0.81110862     0.83100
N163        N  0.97971816  0.33117720  0.82685518    -0.77600
C164        C  0.00270006  0.33470111  0.83540863     0.83200
N165        N  0.02108970  0.31929401  0.82808680    -0.79300
C166        C  0.82374991  0.31484849  0.02348508     0.80600
N167        N  0.84272016  0.32988190  0.01804416    -0.77700
C168        C  0.84711212  0.33689833  0.99486006     0.83100
N169        N  0.83221871  0.32898100  0.97700191    -0.77600
C170        C  0.81288830  0.31416703  0.98209459     0.83200
N171        N  0.80874622  0.30688415  0.00543348    -0.79300
C172        C  0.49091016  0.47989594  0.50876674     0.02700
C173        C  0.51238370  0.48168398  0.49422145     0.02700
C174        C  0.51407466  0.50015143  0.47614467     0.02700
C175        C  0.49365476  0.51613599  0.47250809     0.02700
C176        C  0.47258548  0.51476284  0.48777024     0.02700
C177        C  0.47156894  0.49707069  0.50629066     0.02700
C178        C  0.51722512  0.32133213  0.67410269     0.80600
N179        N  0.52008962  0.34088220  0.65918705    -0.77700
C180        C  0.50074946  0.35055574  0.64725381     0.83100
N181        N  0.47816770  0.34051079  0.65020714    -0.77600
C182        C  0.47501117  0.32079015  0.66496550     0.83200
N183        N  0.49465787  0.31118725  0.67685949    -0.79300
C184        C  0.30797449  0.67407528  0.47096794     0.80600
N185        N  0.32824485  0.65921580  0.46914853    -0.77700
C186        C  0.34317971  0.65643651  0.48872815     0.83100
N187        N  0.33780260  0.66856171  0.50979457    -0.77600
C188        C  0.31760347  0.68317082  0.51169028     0.83200
N189        N  0.30276406  0.68569793  0.49229893    -0.79300
C190        C  0.68384433  0.52865031  0.32286905     0.80600
N191        N  0.66373425  0.52840044  0.33791949    -0.77700
C192        C  0.65030513  0.50732805  0.34014737     0.83100
N193        N  0.65703805  0.48684337  0.32734600    -0.77600
C194        C  0.67711361  0.48687708  0.31263390     0.83200
N195        N  0.69036879  0.50780230  0.31052407    -0.79300
C196        C  0.48212999  0.68376802  0.32758375     0.80600
N197        N  0.50014331  0.69947193  0.32047299    -0.77700
C198        C  0.52290836  0.69754530  0.33029606     0.83100
N199        N  0.52750343  0.67979059  0.34697428    -0.77600
C200        C  0.50967445  0.66406251  0.35391035     0.83200
N201        N  0.48704245  0.66624365  0.34424037    -0.79300
C202        C  0.32294543  0.50930111  0.68281823     0.80600
N203        N  0.33871756  0.51297441  0.66382347    -0.77700
C204        C  0.34536202  0.49385967  0.64899435     0.83100
N205        N  0.33614806  0.47113220  0.65333614    -0.77600
C206        C  0.32044770  0.46725387  0.67212681     0.83200
N207        N  0.31388103  0.48639527  0.68687155    -0.79300
C208        C  0.67887678  0.33235082  0.52936642     0.80600
N209        N  0.66209702  0.35076492  0.52675957    -0.77700
C210        C  0.65324446  0.35646910  0.50452820     0.83100
N211        N  0.66115587  0.34354967  0.48480584    -0.77600
C212        C  0.67769007  0.32488037  0.48700831     0.83200
N213        N  0.68671772  0.31938749  0.50938422    -0.79300
C214        C  0.01838326  0.03822064  0.51369413     0.02700
C215        C  0.03834341  0.02153428  0.51091627     0.02700
C216        C  0.03881668  0.00387096  0.49186806     0.02700
C217        C  0.01946381  0.00352192  0.47494390     0.02700
C218        C  0.99959449  0.02040658  0.47744825     0.02700
C219        C  0.99880397  0.03743471  0.49705168     0.02700
C220        C  0.01647623  0.17727278  0.69228476     0.80600
N221        N  0.02248393  0.15818011  0.67698633    -0.77700
C222        C  0.00513370  0.14170115  0.67022862     0.83100
N223        N  0.98186663  0.14459272  0.67838662    -0.77600
C224        C  0.97540889  0.16344531  0.69330102     0.83200
N225        N  0.99277163  0.17988955  0.70040504    -0.79300
C226        C  0.19992015  0.00619266  0.66435670     0.80600
N227        N  0.20702489  0.98491227  0.67506977    -0.77700
C228        C  0.19539490  0.96358713  0.66988171     0.83100
N229        N  0.17659013  0.96359873  0.65397634    -0.77600
C230        C  0.16939031  0.98469158  0.64318254     0.83200
N231        N  0.18104265  0.00604790  0.64844072    -0.79300
C232        C  0.18233637  0.83033366  0.53002234     0.80600
N233        N  0.19593337  0.81913929  0.51216905    -0.77700
C234        C  0.19319311  0.82580675  0.48857355     0.83100
N235        N  0.17633210  0.84338189  0.48288030    -0.77600
C236        C  0.16270951  0.85473695  0.50048442     0.83200
N237        N  0.16594710  0.84830688  0.52409413    -0.79300
C238        C  0.81598248  0.18027250  0.52183008     0.80600
N239        N  0.81170327  0.18900827  0.49913957    -0.77700
C240        C  0.82751043  0.18377195  0.48050041     0.83100
N241        N  0.84763781  0.16971250  0.48470015    -0.77600
C242        C  0.85230880  0.16100740  0.50726967     0.83200
N243        N  0.83647089  0.16639152  0.52585944    -0.79300
C244        C  0.83144535  0.98538419  0.32607956     0.80600
N245        N  0.82682858  0.00722359  0.31469298    -0.77700
C246        C  0.83782546  0.02833473  0.32266547     0.83100
N247        N  0.85335792  0.02729848  0.34180452    -0.77600
C248        C  0.85791140  0.00565149  0.35316513     0.83200
N249        N  0.84682824  0.98491891  0.34526938    -0.79300
C250        C  0.98073093  0.83228558  0.32048353     0.80600
N251        N  0.97662825  0.85085211  0.33678384    -0.77700
C252        C  0.99524802  0.86550508  0.34395956     0.83100
N253        N  0.01810292  0.86142401  0.33486491    -0.77600
C254        C  0.02260244  0.84313063  0.31857693     0.83200
N255        N  0.00383596  0.82844747  0.31131499    -0.79300
O256        O  0.25080687  0.20478172  0.70641001    -0.79700
O257        O  0.22852790  0.29589248  0.74888462    -0.79700
O258        O  0.20463728  0.22809083  0.72815579    -0.79700
O259        O  0.30298748  0.26264551  0.73927544    -0.79700
O260        O  0.19312874  0.26109720  0.74674151    -0.79800
O261        O  0.28835282  0.24117126  0.70868649    -0.79700
O262        O  0.26460300  0.28778777  0.73464601    -0.79700
O263        O  0.22718803  0.18798037  0.73420795    -0.79700
C264        C  0.23635735  0.18778711  0.71290172     1.10000
C265        C  0.24648055  0.30193431  0.73592446     1.09900
C266        C  0.18955960  0.24526465  0.73041368     1.10000
C267        C  0.30471668  0.25519150  0.71738745     1.09900
O268        O  0.30347811  0.21976191  0.75348844    -0.79700
O269        O  0.21265461  0.23687112  0.78924173    -0.79800
O270        O  0.24524241  0.20191012  0.78128395    -0.79700
O271        O  0.28471700  0.29060390  0.77895631    -0.79700
O272        O  0.25042537  0.27336810  0.79139511    -0.79800
O273        O  0.26827998  0.18610992  0.75214918    -0.79700
O274        O  0.28650393  0.23986417  0.78382070    -0.79700
O275        O  0.19481503  0.20571920  0.77139691    -0.79800
Co276      Co  0.27546277  0.21509336  0.73078951     1.51500
Co277      Co  0.22384053  0.26444100  0.76691617     1.51700
Co278      Co  0.22454880  0.21744906  0.75574766     1.51600
Co279      Co  0.27275033  0.26368170  0.75988254     1.51500
O280        O  0.25001565  0.24022352  0.74532290    -1.41600
C281        C  0.30419770  0.22714149  0.77533018     1.09900
C282        C  0.19338504  0.22371112  0.78631660     1.10000
C283        C  0.25944021  0.18496697  0.77354527     1.09900
C284        C  0.26477834  0.29212816  0.79116291     1.09900
O285        O  0.73827851  0.20154799  0.22983786    -0.79700
O286        O  0.73698736  0.30576840  0.26854497    -0.79700
O287        O  0.70709938  0.25234942  0.29082873    -0.79700
O288        O  0.72406539  0.28076032  0.19702432    -0.79700
O289        O  0.73699767  0.27501895  0.30582666    -0.79800
O290        O  0.72806499  0.24069742  0.20453553    -0.79700
O291        O  0.71012278  0.28659575  0.24532827    -0.79700
O292        O  0.70785134  0.21547893  0.25247803    -0.79700
C293        C  0.71652345  0.19938453  0.23773502     1.10000
C294        C  0.71594865  0.30485295  0.25870877     1.09900
C295        C  0.71512247  0.26701776  0.30700126     1.10000
C296        C  0.72002381  0.25855694  0.19113228     1.09900
O297        O  0.77292966  0.22042134  0.19967136    -0.79700
O298        O  0.78380390  0.25489951  0.29234139    -0.79800
O299        O  0.75474811  0.19946376  0.27111660    -0.79700
O300        O  0.75657243  0.30229083  0.22794399    -0.79700
O301        O  0.78519105  0.29008896  0.25292264    -0.79800
O302        O  0.78361810  0.21696250  0.24871559    -0.79700
O303        O  0.76913132  0.26099131  0.20517856    -0.79700
O304        O  0.75306027  0.23259050  0.30669480    -0.79800
Co305      Co  0.75758914  0.23231220  0.22830098     1.51500
Co306      Co  0.76076089  0.27942324  0.27820828     1.51700
Co307      Co  0.73081260  0.22688840  0.27852483     1.51600
Co308      Co  0.73786265  0.27084179  0.22686650     1.51500
O309        O  0.74670811  0.25247570  0.25664775    -1.41600
C310        C  0.77721401  0.24217654  0.19262923     1.09900
C311        C  0.77476761  0.24092189  0.30857165     1.10000
C312        C  0.77638169  0.19924889  0.26206816     1.09900
C313        C  0.77753941  0.30537265  0.23717854     1.09900
O314        O  0.30034523  0.72577851  0.23744012    -0.79700
O315        O  0.20219146  0.72376221  0.25753396    -0.79700
O316        O  0.26237606  0.71811870  0.28575837    -0.79700
O317        O  0.23721888  0.71618658  0.21884604    -0.79700
O318        O  0.22602026  0.72460145  0.29890304    -0.79800
O319        O  0.26838453  0.73021957  0.19806840    -0.79700
O320        O  0.19343039  0.73816880  0.22059096    -0.79700
O321        O  0.30294475  0.74173886  0.27439839    -0.79700
C322        C  0.31128442  0.72785916  0.25753149     1.10000
C323        C  0.18893651  0.72363399  0.23815996     1.09900
C324        C  0.24535628  0.71248793  0.30029677     1.10000
C325        C  0.25070647  0.71533345  0.20011150     1.09900
O326        O  0.26732331  0.78202675  0.20567268    -0.79700
O327        O  0.23501504  0.77066157  0.30139157    -0.79800
O328        O  0.28068004  0.78821995  0.27399463    -0.79700
O329        O  0.20926048  0.78238876  0.23738349    -0.79700
O330        O  0.19841240  0.76971518  0.27281387    -0.79800
O331        O  0.30268078  0.77790109  0.24129791    -0.79700
O332        O  0.23249625  0.76364998  0.19650109    -0.79700
O333        O  0.27235790  0.75923130  0.31349995    -0.79800
Co334      Co  0.28298458  0.75386277  0.22219238     1.51500
Co335      Co  0.22672919  0.74831190  0.27227530     1.51700
Co336      Co  0.26891642  0.75399213  0.27920556     1.51600
Co337      Co  0.22477980  0.74906891  0.22942695     1.51500
O338        O  0.25513623  0.75368473  0.24682349    -1.41600
C339        C  0.24951839  0.77885742  0.19145102     1.09900
C340        C  0.25213291  0.77062365  0.31748886     1.10000
C341        C  0.29921921  0.79117720  0.26011835     1.09900
C342        C  0.19486115  0.78405800  0.25560918     1.09900
C343        C  0.13304849  0.80870617  0.28008509     0.19100
C344        C  0.12430758  0.81403196  0.30361516    -0.19000
C345        C  0.09950787  0.81899584  0.30794810    -0.11200
C346        C  0.08261837  0.81857736  0.28881762     0.21400
C347        C  0.09121257  0.81286939  0.26527875    -0.20600
C348        C  0.11625649  0.80812754  0.26087363    -0.11400
C349        C  0.05597184  0.82308372  0.29353234    -0.15600
C350        C  0.04837261  0.83895559  0.31093295    -0.29400
C351        C  0.15893542  0.80033881  0.27737052    -0.03700
C352        C  0.17259434  0.80000160  0.25665907    -0.40300
H353        H  0.13669218  0.81385219  0.31887852     0.12500
H354        H  0.09350731  0.82238185  0.32647275     0.12200
H355        H  0.07851315  0.81200401  0.25031240     0.11600
H356        H  0.12224563  0.80313836  0.24269615     0.11800
H357        H  0.04260826  0.81350673  0.28252809     0.14600
H358        H  0.06194283  0.84975549  0.32050500     0.13300
H359        H  0.16680146  0.79250337  0.29369399     0.11000
H360        H  0.16598035  0.80858613  0.24021354     0.13000
C361        C  0.79120088  0.13020041  0.27408163     0.19100
C362        C  0.81555591  0.12661678  0.28153044    -0.19000
C363        C  0.82397574  0.10295435  0.28796851    -0.11200
C364        C  0.80818350  0.08243892  0.28702908     0.21400
C365        C  0.78429528  0.08605783  0.27855226    -0.20600
C366        C  0.77588414  0.10955124  0.27239057    -0.11400
C367        C  0.81538487  0.05714862  0.29520581    -0.15600
C368        C  0.83286319  0.05285772  0.31177606    -0.29400
C369        C  0.77987150  0.15493539  0.26996379    -0.03700
C370        C  0.79145686  0.17645818  0.26530086    -0.40300
H371        H  0.82784186  0.14208324  0.28317498     0.12500
H372        H  0.84274647  0.10088301  0.29378548     0.12200
H373        H  0.77174070  0.07072671  0.27743978     0.11600
H374        H  0.75702759  0.11165990  0.26672606     0.11800
H375        H  0.80441848  0.04176027  0.28899449     0.14600
H376        H  0.84302958  0.06822896  0.31915873     0.13300
H377        H  0.75993785  0.15518799  0.27043686     0.11000
H378        H  0.81119446  0.17706038  0.26283987     0.13000
C379        C  0.78370279  0.22624574  0.37658034     0.19100
C380        C  0.80837668  0.22097117  0.38173769    -0.19000
C381        C  0.81533248  0.21494972  0.40548180    -0.11200
C382        C  0.79772079  0.21407158  0.42442108     0.21400
C383        C  0.77334579  0.22022941  0.41925686    -0.20600
C384        C  0.76641915  0.22604441  0.39566771    -0.11400
C385        C  0.80363293  0.20667202  0.44972028    -0.15600
C386        C  0.82311389  0.19263888  0.45553062    -0.29400
C387        C  0.77442700  0.23052907  0.35167343    -0.03700
C388        C  0.78776159  0.23646537  0.33171792    -0.40300
H389        H  0.82216575  0.22084841  0.36749308     0.12500
H390        H  0.83446392  0.21100202  0.40884429     0.12200
H391        H  0.75943372  0.21992679  0.43342428     0.11600
H392        H  0.74726256  0.23007603  0.39226560     0.11800
H393        H  0.79051269  0.21168760  0.46391571     0.14600
H394        H  0.83594980  0.18658321  0.44152815     0.13300
H395        H  0.75461683  0.22933441  0.34992939     0.11000
H396        H  0.80735611  0.23955748  0.33272880     0.13000
C397        C  0.22399573  0.81185510  0.42599880     0.19100
C398        C  0.22672953  0.82576651  0.40475396    -0.19000
C399        C  0.23839410  0.81583665  0.38418400    -0.11200
C400        C  0.24735299  0.79146076  0.38420747     0.21400
C401        C  0.24582316  0.77794083  0.40579520    -0.20600
C402        C  0.23410395  0.78789321  0.42646181    -0.11400
C403        C  0.25674198  0.77927700  0.36160222    -0.15600
C404        C  0.24750888  0.78500462  0.33981634    -0.29400
C405        C  0.20932805  0.82273808  0.44646594    -0.03700
C406        C  0.20863198  0.81403340  0.46934870    -0.40300
H407        H  0.21941627  0.84435999  0.40390126     0.12500
H408        H  0.24002558  0.82719241  0.36819575     0.12200
H409        H  0.25281335  0.75922697  0.40638535     0.11600
H410        H  0.23230203  0.77640415  0.44230323     0.11800
H411        H  0.26897590  0.76345803  0.36312203     0.14600
H412        H  0.23334693  0.79910407  0.33859871     0.13300
H413        H  0.19860960  0.83913717  0.44238471     0.11000
H414        H  0.21997414  0.79845747  0.47445528     0.13000
C415        C  0.22258187  0.12113883  0.69439767     0.19100
C416        C  0.22322094  0.09967570  0.70838043    -0.19000
C417        C  0.21847870  0.07684753  0.69795344    -0.11200
C418        C  0.21292627  0.07492517  0.67315665     0.21400
C419        C  0.21257662  0.09634991  0.65899818    -0.20600
C420        C  0.21753333  0.11933266  0.66947825    -0.11400
C421        C  0.20497778  0.05125432  0.66243032    -0.15600
C422        C  0.21155578  0.02935790  0.67168489    -0.29400
C423        C  0.22545654  0.14487136  0.70728018    -0.03700
C424        C  0.23216958  0.16627123  0.69704252    -0.40300
H425        H  0.22676094  0.10063366  0.72767504     0.12500
H426        H  0.21803752  0.06098555  0.70973203     0.12200
H427        H  0.20795920  0.09534142  0.63994412     0.11600
H428        H  0.21642758  0.13560845  0.65829629     0.11800
H429        H  0.19252567  0.05196373  0.64717233     0.14600
H430        H  0.22509035  0.02832857  0.68595141     0.13300
H431        H  0.22300431  0.14427478  0.72689121     0.11000
H432        H  0.23661119  0.16736643  0.67784068     0.13000
C433        C  0.07916353  0.21138570  0.69786575     0.19100
C434        C  0.10144190  0.20927010  0.68494403    -0.19000
C435        C  0.12241714  0.22183636  0.69241292    -0.11200
C436        C  0.12181539  0.23715616  0.71319429     0.21400
C437        C  0.09913786  0.24042980  0.72528689    -0.20600
C438        C  0.07811038  0.22765241  0.71790717    -0.11400
C439        C  0.14458063  0.24758380  0.72444237    -0.15600
C440        C  0.16742431  0.24473497  0.71505852    -0.29400
C441        C  0.05836878  0.19518298  0.69029837    -0.03700
C442        C  0.03549169  0.19523075  0.70005955    -0.40300
H443        H  0.10290860  0.19711274  0.66930455     0.12500
H444        H  0.13909103  0.21852422  0.68216964     0.12200
H445        H  0.09784957  0.25237602  0.74106880     0.11600
H446        H  0.06144125  0.23012504  0.72842898     0.11800
H447        H  0.14278288  0.25520817  0.74269195     0.14600
H448        H  0.17007205  0.23666091  0.69719287     0.13300
H449        H  0.06243679  0.18195001  0.67589676     0.11000
H450        H  0.03035098  0.20851289  0.71400083     0.13000
C451        C  0.00679575  0.91765341  0.39023769     0.19100
C452        C  0.02809627  0.92475259  0.40242584    -0.19000
C453        C  0.02697594  0.94206170  0.42121194    -0.11200
C454        C  0.00446670  0.95295931  0.42800048     0.21400
C455        C  0.98309725  0.94588739  0.41590531    -0.20600
C456        C  0.98421495  0.92850956  0.39704583    -0.11400
C457        C  0.00265661  0.97108224  0.44813477    -0.15600
C458        C  0.02102916  0.98638465  0.45383521    -0.29400
C459        C  0.00928066  0.89906109  0.37051653    -0.03700
C460        C  0.99081749  0.88507622  0.36227070    -0.40300
H461        H  0.04568937  0.91658112  0.39762871     0.12500
H462        H  0.04369376  0.94643290  0.43067888     0.12200
H463        H  0.96555019  0.95404825  0.42089590     0.11600
H464        H  0.96746928  0.92394563  0.38775391     0.11800
H465        H  0.98560382  0.97197578  0.45846963     0.14600
H466        H  0.03821460  0.98561363  0.44374597     0.13300
H467        H  0.02767907  0.89587147  0.36333651     0.11000
H468        H  0.97240700  0.88712776  0.36967106     0.13000
C469        C  0.90493437  0.02156008  0.40286855     0.19100
C470        C  0.92438638  0.03827300  0.40401647    -0.19000
C471        C  0.94170426  0.03670822  0.42249966    -0.11200
C472        C  0.93980461  0.01842885  0.44039433     0.21400
C473        C  0.91978728  0.00237852  0.43987677    -0.20600
C474        C  0.90255352  0.00381777  0.42127645    -0.11400
C475        C  0.95797368  0.01615284  0.46016221    -0.15600
C476        C  0.98154689  0.02278555  0.45748917    -0.29400
C477        C  0.88738157  0.02342750  0.38244226    -0.03700
C478        C  0.87460401  0.00409086  0.37409543    -0.40300
H479        H  0.92637452  0.05241453  0.39036412     0.12500
H480        H  0.95635652  0.05002373  0.42288269     0.12200
H481        H  0.91763781  0.98848833  0.45375643     0.11600
H482        H  0.88729822  0.99121007  0.42157747     0.11800
H483        H  0.95212628  0.00780297  0.47712668     0.14600
H484        H  0.98841177  0.02890005  0.43998973     0.13300
H485        H  0.88594489  0.04097592  0.37316895     0.11000
H486        H  0.87690043  0.98612772  0.38231838     0.13000
C487        C  0.95300215  0.09180174  0.49843676     0.19100
C488        C  0.94990888  0.11307619  0.51277401    -0.19000
C489        C  0.92797807  0.12670676  0.51192365    -0.11200
C490        C  0.90916005  0.11959689  0.49612340     0.21400
C491        C  0.91256151  0.09861474  0.48145311    -0.20600
C492        C  0.93410426  0.08464274  0.48282259    -0.11400
C493        C  0.88661566  0.13463942  0.49308405    -0.15600
C494        C  0.87464502  0.14602263  0.51154731    -0.29400
C495        C  0.97633726  0.07767914  0.49889298    -0.03700
C496        C  0.97641382  0.05301315  0.50054062    -0.40300
H497        H  0.96441555  0.11904207  0.52469712     0.12500
H498        H  0.92605063  0.14316706  0.52298965     0.12200
H499        H  0.89847032  0.09301983  0.46887569     0.11600
H500        H  0.93628616  0.06860097  0.47120047     0.11800
H501        H  0.87896214  0.13538766  0.47494927     0.14600
H502        H  0.88095317  0.14379566  0.53005586     0.13300
H503        H  0.99342916  0.08762283  0.49698389     0.11000
H504        H  0.95900633  0.04359486  0.50235607     0.13000
C505        C  0.02375400  0.06843214  0.57735726     0.19100
C506        C  0.01780918  0.06120826  0.60108518    -0.19000
C507        C  0.01992068  0.07773743  0.62050906    -0.11200
C508        C  0.02815227  0.10192994  0.61660293     0.21400
C509        C  0.03552199  0.10867758  0.59311134    -0.20600
C510        C  0.03330262  0.09216059  0.57364040    -0.11400
C511        C  0.02777767  0.12085439  0.63630265    -0.15600
C512        C  0.01021299  0.12087818  0.65357546    -0.29400
C513        C  0.02077983  0.05039937  0.55719153    -0.03700
C514        C  0.01840871  0.05685309  0.53376305    -0.40300
H515        H  0.01109001  0.04282325  0.60455716     0.12500
H516        H  0.01492476  0.07157055  0.63852536     0.12200
H517        H  0.04229694  0.12704591  0.58967861     0.11600
H518        H  0.03916903  0.09804707  0.55579633     0.11800
H519        H  0.03987555  0.13659295  0.63478205     0.14600
H520        H  0.99663109  0.10636120  0.65358365     0.13300
H521        H  0.02042929  0.03095728  0.56176770     0.11000
H522        H  0.01695358  0.07610870  0.52900930     0.13000
C523        C  0.12153262  0.00317548  0.59561433     0.19100
C524        C  0.11142445  0.02566354  0.58811822    -0.19000
C525        C  0.09271456  0.02623935  0.57103479    -0.11200
C526        C  0.08391510  0.00420746  0.56091164     0.21400
C527        C  0.09380238  0.98171804  0.56856769    -0.20600
C528        C  0.11260412  0.98113465  0.58551466    -0.11400
C529        C  0.06416130  0.00381101  0.54275045    -0.15600
C530        C  0.05898625  0.02282981  0.52817547    -0.29400
C531        C  0.14170761  0.00365324  0.61344717    -0.03700
C532        C  0.14891335  0.98386883  0.62608588    -0.40300
H533        H  0.11791966  0.04287747  0.59564349     0.12500
H534        H  0.08499294  0.04391904  0.56620983     0.12200
H535        H  0.08721993  0.96450830  0.56110260     0.11600
H536        H  0.12022838  0.96338434  0.59014273     0.11800
H537        H  0.05376915  0.98690987  0.54077554     0.14600
H538        H  0.06883902  0.04004566  0.52951574     0.13300
H539        H  0.15078639  0.02113713  0.61649151     0.11000
H540        H  0.13969373  0.96637919  0.62413461     0.13000
C541        C  0.07950075  0.94476517  0.49184573     0.19100
C542        C  0.07877543  0.92112730  0.48136999    -0.19000
C543        C  0.09723652  0.90369111  0.48604013    -0.11200
C544        C  0.11656940  0.90939249  0.50181445     0.21400
C545        C  0.11727880  0.93299694  0.51229167    -0.20600
C546        C  0.09917964  0.95059925  0.50715948    -0.11400
C547        C  0.13528421  0.89067617  0.50886257    -0.15600
C548        C  0.14404086  0.87330666  0.49345785    -0.29400
C549        C  0.05836598  0.96201966  0.48860710    -0.03700
C550        C  0.06047738  0.98673546  0.48963471    -0.40300
H551        H  0.06366238  0.91602509  0.46977881     0.12500
H552        H  0.09584113  0.88550382  0.47807238     0.12200
H553        H  0.13182199  0.93778549  0.52470006     0.11600
H554        H  0.10013156  0.96836706  0.51602248     0.11800
H555        H  0.14289164  0.89195967  0.52700346     0.14600
H556        H  0.13805594  0.87323099  0.47469193     0.13300
H557        H  0.04031329  0.95400150  0.48647313     0.11000
H558        H  0.07854181  0.99469229  0.49176119     0.13000
C559        C  0.70130500  0.28576555  0.37379923     0.19100
C560        C  0.71637392  0.28451967  0.39432191    -0.19000
C561        C  0.70805108  0.29281239  0.41704974    -0.11200
C562        C  0.68432066  0.30275829  0.41987602     0.21400
C563        C  0.66903417  0.30361552  0.39939891    -0.20600
C564        C  0.67735865  0.29512009  0.37659108    -0.11400
C565        C  0.67555641  0.31420069  0.44317568    -0.15600
C566        C  0.68623731  0.31111484  0.46506151    -0.29400
C567        C  0.71247035  0.27932584  0.34979457    -0.03700
C568        C  0.70050668  0.27304864  0.32924546    -0.40300
H569        H  0.73501385  0.27762976  0.39265086     0.12500
H570        H  0.72070635  0.29223941  0.43200882     0.12200
H571        H  0.65074034  0.31140385  0.40094095     0.11600
H572        H  0.66541615  0.29680657  0.36110832     0.11800
H573        H  0.65951503  0.32611117  0.44208196     0.14600
H574        H  0.70147117  0.29840682  0.46714090     0.13300
H575        H  0.73240630  0.27916758  0.34933324     0.11000
H576        H  0.68073087  0.27110273  0.32917150     0.13000
C577        C  0.27356806  0.36091367  0.70805118     0.19100
C578        C  0.29605879  0.36584341  0.69654230    -0.19000
C579        C  0.30322588  0.38995702  0.69180608    -0.11200
C580        C  0.28796205  0.40996951  0.69834546     0.21400
C581        C  0.26545980  0.40516831  0.70996719    -0.20600
C582        C  0.25818625  0.38089534  0.71462145    -0.11400
C583        C  0.29560070  0.43589921  0.69408914    -0.15600
C584        C  0.31141023  0.44203138  0.67621187    -0.29400
C585        C  0.26847710  0.33489694  0.71476498    -0.03700
C586        C  0.24730725  0.32646586  0.72434478    -0.40300
H587        H  0.30850326  0.35092850  0.69164704     0.12500
H588        H  0.32112391  0.39276250  0.68370213     0.12200
H589        H  0.25350580  0.42024613  0.71551903     0.11600
H590        H  0.24091203  0.37806781  0.72393312     0.11800
H591        H  0.28776138  0.45024891  0.70568317     0.14600
H592        H  0.31815724  0.42800001  0.66367138     0.13300
H593        H  0.28386769  0.32213043  0.71305874     0.11000
H594        H  0.23136147  0.33837759  0.72624854     0.13000
C595        C  0.37289176  0.71095036  0.28551969     0.19100
C596        C  0.38040405  0.70581015  0.30916517    -0.19000
C597        C  0.40510404  0.70229610  0.31424094    -0.11200
C598        C  0.42296296  0.70390069  0.29571567     0.21400
C599        C  0.41552389  0.70924406  0.27199205    -0.20600
C600        C  0.39061566  0.71259849  0.26684690    -0.11400
C601        C  0.44938452  0.70109525  0.30132985    -0.15600
C602        C  0.45678914  0.68580136  0.31889471    -0.29400
C603        C  0.34691747  0.71759567  0.28192278    -0.03700
C604        C  0.33526674  0.71576749  0.26065007    -0.40300
H605        H  0.36712724  0.70505027  0.32390668     0.12500
H606        H  0.41021020  0.69914757  0.33291523     0.12200
H607        H  0.42898588  0.71097156  0.25752734     0.11600
H608        H  0.38543171  0.71743560  0.24855801     0.11800
H609        H  0.46273096  0.71159793  0.29102047     0.14600
H610        H  0.44345799  0.67406324  0.32780759     0.13300
H611        H  0.33717851  0.72526634  0.29758795     0.11000
H612        H  0.34408639  0.70704726  0.24503025     0.13000
C613        C  0.69852534  0.37303785  0.27043011     0.19100
C614        C  0.71236450  0.39445694  0.26704069    -0.19000
C615        C  0.70393048  0.41730114  0.27550841    -0.11200
C616        C  0.68129415  0.41943009  0.28790843     0.21400
C617        C  0.66691118  0.39808964  0.29037017    -0.20600
C618        C  0.67539235  0.37509559  0.28173661    -0.11400
C619        C  0.67260993  0.44301445  0.29955063    -0.15600
C620        C  0.68521577  0.46437437  0.29931730    -0.29400
C621        C  0.71067692  0.34905609  0.26473748    -0.03700
C622        C  0.69987722  0.32693242  0.26149731    -0.40300
H623        H  0.73029683  0.39341396  0.25840253     0.12500
H624        H  0.71576736  0.43287909  0.27272785     0.12200
H625        H  0.64935688  0.39905273  0.29973365     0.11600
H626        H  0.66439487  0.35891441  0.28496145     0.11800
H627        H  0.65528206  0.44251018  0.30948199     0.14600
H628        H  0.70241290  0.46581113  0.28945925     0.13300
H629        H  0.73058420  0.34978859  0.26335795     0.11000
H630        H  0.68008814  0.32521478  0.26071900     0.13000
C631        C  0.25178494  0.69029024  0.36529839     0.19100
C632        C  0.24946439  0.70405531  0.38690681    -0.19000
C633        C  0.26310540  0.69778466  0.40741459    -0.11200
C634        C  0.27911374  0.67722846  0.40688812     0.21400
C635        C  0.28045982  0.66288113  0.38564626    -0.20600
C636        C  0.26677402  0.66910628  0.36521690    -0.11400
C637        C  0.29552981  0.67086113  0.42751746    -0.15600
C638        C  0.29121207  0.67844764  0.45044713    -0.29400
C639        C  0.24042523  0.69997830  0.34273992    -0.03700
C640        C  0.24966063  0.69518711  0.32030257    -0.40300
H641        H  0.23798114  0.72041772  0.38755914     0.12500
H642        H  0.26176037  0.70976284  0.42313192     0.12200
H643        H  0.29242778  0.64688192  0.38473235     0.11600
H644        H  0.26843035  0.65747655  0.34927170     0.11800
H645        H  0.31165891  0.65955587  0.42365956     0.14600
H646        H  0.27471062  0.68895914  0.45468770     0.13300
H647        H  0.22696682  0.71475610  0.34489107     0.11000
H648        H  0.26464698  0.68217615  0.31779853     0.13000
C649        C  0.37258816  0.27082469  0.70532895     0.19100
C650        C  0.37651514  0.27947349  0.68160760    -0.19000
C651        C  0.40023084  0.28585518  0.67381579    -0.11200
C652        C  0.42030609  0.28347017  0.68959667     0.21400
C653        C  0.41636552  0.27371537  0.71276674    -0.20600
C654        C  0.39278862  0.26782109  0.72064353    -0.11400
C655        C  0.44548689  0.29159879  0.68315983    -0.15600
C656        C  0.45011610  0.31057283  0.66826849    -0.29400
C657        C  0.34788132  0.26648461  0.71587491    -0.03700
C658        C  0.32739987  0.26082639  0.70350558    -0.40300
H659        H  0.36129538  0.28217314  0.66943316     0.12500
H660        H  0.40275574  0.29279620  0.65559720     0.12200
H661        H  0.43147570  0.27155690  0.72522034     0.11600
H662        H  0.39026085  0.26133273  0.73904811     0.11800
H663        H  0.46059292  0.28323343  0.69294129     0.14600
H664        H  0.43511064  0.31989489  0.65923357     0.13300
H665        H  0.34690294  0.26683014  0.73561351     0.11000
H666        H  0.32786105  0.25840812  0.68393278     0.13000
C667        C  0.39097739  0.60557027  0.47362765     0.19100
C668        C  0.38891780  0.58085521  0.46637168    -0.19000
C669        C  0.40856404  0.56436983  0.46926393    -0.11200
C670        C  0.43079528  0.57238440  0.47935062     0.21400
C671        C  0.43313546  0.59733283  0.48560755    -0.20600
C672        C  0.41349517  0.61373188  0.48285076    -0.11400
C673        C  0.45222520  0.55568479  0.48292064    -0.15600
C674        C  0.45067182  0.53098725  0.48402286    -0.29400
C675        C  0.36938404  0.62240999  0.47175563    -0.03700
C676        C  0.36529484  0.64053907  0.48809116    -0.40300
H677        H  0.37191670  0.57418859  0.45886769     0.12500
H678        H  0.40627136  0.54551053  0.46333664     0.12200
H679        H  0.45018245  0.60414245  0.49289277     0.11600
H680        H  0.41605992  0.63284764  0.48783817     0.11800
H681        H  0.47000620  0.56412077  0.48557707     0.14600
H682        H  0.43287170  0.52222365  0.48391942     0.13300
H683        H  0.35572345  0.61863660  0.45803708     0.11000
H684        H  0.37790415  0.64281243  0.50304875     0.13000
C685        C  0.38565730  0.48125619  0.59147248     0.19100
C686        C  0.39130599  0.45970750  0.57821871    -0.19000
C687        C  0.40712324  0.46028562  0.55809875    -0.11200
C688        C  0.41790123  0.48241336  0.55071092     0.21400
C689        C  0.41186641  0.50417743  0.56359674    -0.20600
C690        C  0.39599814  0.50360692  0.58376224    -0.11400
C691        C  0.43549534  0.48175874  0.52979576    -0.15600
C692        C  0.45218676  0.49936262  0.52550323    -0.29400
C693        C  0.36875219  0.47924805  0.61285287    -0.03700
C694        C  0.36244502  0.49777458  0.62824776    -0.40300
H695        H  0.38353981  0.44221082  0.58353313     0.12500
H696        H  0.41125590  0.44326223  0.54849742     0.12200
H697        H  0.41906425  0.52180880  0.55813927     0.11600
H698        H  0.39192347  0.52077021  0.59299868     0.11800
H699        H  0.43571582  0.46546246  0.51825436     0.14600
H700        H  0.45253809  0.51596665  0.53648194     0.13300
H701        H  0.36108350  0.46112698  0.61612275     0.11000
H702        H  0.36971492  0.51612839  0.62587927     0.13000
C703        C  0.50178129  0.60885672  0.39669482     0.19100
C704        C  0.48091715  0.59763042  0.40655854    -0.19000
C705        C  0.48316001  0.57933377  0.42398704    -0.11200
C706        C  0.50645179  0.57158327  0.43168686     0.21400
C707        C  0.52737914  0.58284586  0.42202052    -0.20600
C708        C  0.52514114  0.60121710  0.40449062    -0.11400
C709        C  0.50917402  0.55228110  0.45025022    -0.15600
C710        C  0.49320926  0.53370741  0.45212050    -0.29400
C711        C  0.49807521  0.62811501  0.37816385    -0.03700
C712        C  0.51499489  0.64484576  0.37189247    -0.40300
H713        H  0.46273026  0.60324884  0.40096066     0.12500
H714        H  0.46659257  0.57163723  0.43167312     0.12200
H715        H  0.54548331  0.57713153  0.42777572     0.11600
H716        H  0.54170793  0.60898726  0.39694554     0.11800
H717        H  0.52454228  0.55331636  0.46261705     0.14600
H718        H  0.47795883  0.53236330  0.43967715     0.13300
H719        H  0.48007353  0.62904490  0.36990522     0.11000
H720        H  0.53290784  0.64492481  0.38023930     0.13000
C721        C  0.55996009  0.50734467  0.42162489     0.19100
C722        C  0.55874452  0.50270152  0.39654971    -0.19000
C723        C  0.57885785  0.50716843  0.38124343    -0.11200
C724        C  0.60086707  0.51649036  0.39060768     0.21400
C725        C  0.60191681  0.52193541  0.41552890    -0.20600
C726        C  0.58178444  0.51737332  0.43091478    -0.11400
C727        C  0.62286627  0.52054425  0.37474487    -0.15600
C728        C  0.62793415  0.50583356  0.35554520    -0.29400
C729        C  0.53770537  0.50238584  0.43694534    -0.03700
C730        C  0.53720505  0.50280958  0.46144078    -0.40300
H731        H  0.54210761  0.49550938  0.38870607     0.12500
H732        H  0.57700823  0.50352388  0.36201308     0.12200
H733        H  0.61850734  0.52943154  0.42319008     0.11600
H734        H  0.58348665  0.52204150  0.44990748     0.11800
H735        H  0.63596677  0.53454818  0.37995460     0.14600
H736        H  0.61592858  0.49043439  0.35180164     0.13300
H737        H  0.52074356  0.49835715  0.42757999     0.11000
H738        H  0.55399327  0.50553161  0.47127494     0.13000
C739        C  0.60590919  0.40836881  0.51574353     0.19100
C740        C  0.58388895  0.40953349  0.52911238    -0.19000
C741        C  0.56696997  0.42852749  0.52509429    -0.11200
C742        C  0.57223464  0.44708202  0.50822661     0.21400
C743        C  0.59461868  0.44652084  0.49555427    -0.20600
C744        C  0.61122926  0.42714436  0.49903364    -0.11400
C745        C  0.55450432  0.46718200  0.50387637    -0.15600
C746        C  0.53160903  0.46230934  0.49671875    -0.29400
C747        C  0.62322762  0.38763245  0.51967445    -0.03700
C748        C  0.63583806  0.37708764  0.50121173    -0.40300
H749        H  0.57954523  0.39542104  0.54226216     0.12500
H750        H  0.54985106  0.42885269  0.53520982     0.12200
H751        H  0.59900888  0.46083045  0.48262667     0.11600
H752        H  0.62834403  0.42701380  0.48890268     0.11800
H753        H  0.56039563  0.48602723  0.50660710     0.14600
H754        H  0.52599742  0.44322601  0.49483773     0.13300
H755        H  0.62464312  0.38009580  0.53784854     0.11000
H756        H  0.63285310  0.38338114  0.48277478     0.13000
C757        C  0.49118145  0.40348400  0.60161866     0.19100
C758        C  0.47137902  0.41129242  0.58747162    -0.19000
C759        C  0.47451722  0.42931816  0.56977743    -0.11200
C760        C  0.49765665  0.43992821  0.56576930     0.21400
C761        C  0.51723020  0.43293783  0.58052763    -0.20600
C762        C  0.51412098  0.41489715  0.59824929    -0.11400
C763        C  0.50168042  0.45882891  0.54687733    -0.15600
C764        C  0.48822227  0.45980949  0.52666091    -0.29400
C765        C  0.48695810  0.38341156  0.61943873    -0.03700
C766        C  0.50511614  0.37130827  0.63071705    -0.40300
H767        H  0.45341642  0.40325931  0.58995576     0.12500
H768        H  0.45870028  0.43504658  0.55949909     0.12200
H769        H  0.53506891  0.44128803  0.57817366     0.11600
H770        H  0.52978265  0.41029062  0.60918761     0.11800
H771        H  0.51630024  0.47207244  0.54939948     0.14600
H772        H  0.47418275  0.44622978  0.52328103     0.13300
H773        H  0.46815858  0.37776837  0.62272160     0.11000
H774        H  0.52408815  0.37608722  0.62758364     0.13000
C775        C  0.79581771  0.27321192  0.13296041     0.19100
C776        C  0.80274301  0.29698184  0.12602516    -0.19000
C777        C  0.80557660  0.30293756  0.10152977    -0.11200
C778        C  0.80146133  0.28518628  0.08329124     0.21400
C779        C  0.79419973  0.26148013  0.09018504    -0.20600
C780        C  0.79149642  0.25546382  0.11476426    -0.11400
C781        C  0.80406418  0.29118233  0.05704969    -0.15600
C782        C  0.82004094  0.30813970  0.04917503    -0.29400
C783        C  0.79033395  0.26863203  0.15900446    -0.03700
C784        C  0.78967769  0.24610757  0.16906249    -0.40300
H785        H  0.80554275  0.31116245  0.13963129     0.12500
H786        H  0.81030075  0.32167352  0.09698024     0.12200
H787        H  0.79054186  0.24759860  0.07650475     0.11600
H788        H  0.78516470  0.23722812  0.11934013     0.11800
H789        H  0.79348136  0.28075977  0.04396409     0.14600
H790        H  0.83187452  0.31723254  0.06212846     0.13300
H791        H  0.78508364  0.28456352  0.16998918     0.11000
H792        H  0.79552584  0.23000279  0.15870977     0.13000
C793        C  0.08209908  0.27032792  0.80683989     0.19100
C794        C  0.10518133  0.27797307  0.81500051    -0.19000
C795        C  0.12645954  0.26428816  0.80976357    -0.11200
C796        C  0.12534518  0.24215616  0.79635156     0.21400
C797        C  0.10223494  0.23431687  0.78833816    -0.20600
C798        C  0.08084884  0.24815544  0.79347624    -0.11400
C799        C  0.14799648  0.22822638  0.78851716    -0.15600
C800        C  0.17022501  0.23128118  0.79867310    -0.29400
C801        C  0.06026408  0.28617613  0.81312538    -0.03700
C802        C  0.03717765  0.28342068  0.80474467    -0.40300
H803        H  0.10688492  0.29497305  0.82524806     0.12500
H804        H  0.14373439  0.27169131  0.81569063     0.12200
H805        H  0.10074903  0.21754178  0.77770529     0.11600
H806        H  0.06355763  0.24136627  0.78690526     0.11800
H807        H  0.14665156  0.21642417  0.77256528     0.14600
H808        H  0.17207546  0.24290581  0.81461197     0.13300
H809        H  0.06366767  0.30146646  0.82544463     0.11000
H810        H  0.03295367  0.26867441  0.79213521     0.13000
C811        C  0.79181559  0.36919953  0.20854609     0.19100
C812        C  0.78792782  0.37890865  0.18528994    -0.19000
C813        C  0.79245434  0.40373062  0.18024466    -0.11200
C814        C  0.80084052  0.41983991  0.19843524     0.21400
C815        C  0.80478696  0.41018388  0.22178066    -0.20600
C816        C  0.80053548  0.38510408  0.22677027    -0.11400
C817        C  0.80462311  0.44678297  0.19352316    -0.15600
C818        C  0.81181832  0.45503516  0.17150800    -0.29400
C819        C  0.78329907  0.34352979  0.21348865    -0.03700
C820        C  0.79114618  0.32846639  0.23141326    -0.40300
H821        H  0.78077476  0.36729532  0.17098618     0.12500
H822        H  0.78849135  0.41042088  0.16223085     0.12200
H823        H  0.81101304  0.42212607  0.23624615     0.11600
H824        H  0.80310502  0.37848617  0.24506823     0.11800
H825        H  0.80254064  0.45983150  0.20844538     0.14600
H826        H  0.81613365  0.44160904  0.15737975     0.13300
H827        H  0.76893240  0.33684708  0.20165466     0.11000
H828        H  0.80629330  0.33387944  0.24285239     0.13000
C829        C  0.13237432  0.69073586  0.21493256     0.19100
C830        C  0.12384055  0.68366944  0.19208861    -0.19000
C831        C  0.10016057  0.67473593  0.18954600    -0.11200
C832        C  0.08452014  0.67267874  0.20990645     0.21400
C833        C  0.09314871  0.67941498  0.23284945    -0.20600
C834        C  0.11695292  0.68825301  0.23542756    -0.11400
C835        C  0.05862270  0.66544361  0.20714335    -0.15600
C836        C  0.05174839  0.64997792  0.18946379    -0.29400
C837        C  0.15593290  0.70374527  0.21612877    -0.03700
C838        C  0.16869516  0.70620049  0.23660970    -0.40300
H839        H  0.13523990  0.68588476  0.17602612     0.12500
H840        H  0.09382107  0.67055938  0.17143935     0.12200
H841        H  0.08127447  0.67833385  0.24869205     0.11600
H842        H  0.12262508  0.69430819  0.25323588     0.11800
H843        H  0.04500225  0.67340248  0.21947820     0.14600
H844        H  0.06555810  0.64086914  0.17816705     0.13300
H845        H  0.16228857  0.71282694  0.19970625     0.11000
H846        H  0.16372725  0.69605619  0.25282331     0.13000
C847        C  0.25100029  0.36038573  0.80159519     0.19100
C848        C  0.24879275  0.37916355  0.78433364    -0.19000
C849        C  0.23449800  0.40015574  0.78929995    -0.11200
C850        C  0.22249282  0.40293276  0.81191606     0.21400
C851        C  0.22561824  0.38457009  0.82949614    -0.20600
C852        C  0.23977359  0.36358750  0.82446689    -0.11400
C853        C  0.20550720  0.42374223  0.81775920    -0.15600
C854        C  0.20382089  0.44484910  0.80508177    -0.29400
C855        C  0.26386152  0.33718118  0.79460179    -0.03700
C856        C  0.25705468  0.31513098  0.80331679    -0.40300
H857        H  0.25740965  0.37713418  0.76666907     0.12500
H858        H  0.23237331  0.41363034  0.77507825     0.12200
H859        H  0.21676576  0.38628602  0.84710843     0.11600
H860        H  0.24167447  0.34980932  0.83846717     0.11800
H861        H  0.19378082  0.42147626  0.83361873     0.14600
H862        H  0.21581528  0.44823720  0.78970074     0.13300
H863        H  0.27674682  0.33781493  0.77943944     0.11000
H864        H  0.24243815  0.31390703  0.81674153     0.13000
C865        C  0.22178194  0.67995551  0.08763498     0.19100
C866        C  0.20790117  0.67750380  0.10923156    -0.19000
C867        C  0.21776793  0.68418926  0.13183656    -0.11200
C868        C  0.24180771  0.69342369  0.13342987     0.21400
C869        C  0.25569458  0.69534922  0.11189715    -0.20600
C870        C  0.24583526  0.68880963  0.08938832    -0.11400
C871        C  0.25224896  0.70370046  0.15642623    -0.15600
C872        C  0.24328914  0.69979124  0.17907497    -0.29400
C873        C  0.21153900  0.67528226  0.06286371    -0.03700
C874        C  0.19176536  0.66121984  0.05828881    -0.40300
H875        H  0.18908056  0.67140371  0.10873121     0.12500
H876        H  0.20611259  0.68302583  0.14777107     0.12200
H877        H  0.27415469  0.70257367  0.11238927     0.11600
H878        H  0.25697302  0.69108466  0.07317406     0.11800
H879        H  0.26746562  0.71637026  0.15433116     0.14600
H880        H  0.22825268  0.68712310  0.18186767     0.13300
H881        H  0.22096860  0.68374169  0.04761798     0.11000
H882        H  0.18273117  0.65163781  0.07305277     0.13000
C883        C  0.06948673  0.48633293  0.92543366     0.19100
C884        C  0.08955995  0.47010489  0.92357210    -0.19000
C885        C  0.10555457  0.47098313  0.90359263    -0.11200
C886        C  0.10178215  0.48826158  0.88502200     0.21400
C887        C  0.08180725  0.50462958  0.88703956    -0.20600
C888        C  0.06581943  0.50371957  0.90698262    -0.11400
C889        C  0.11878928  0.49086983  0.86394764    -0.15600
C890        C  0.13537829  0.47370102  0.85686384    -0.29400
C891        C  0.05336346  0.48519522  0.94725667    -0.03700
C892        C  0.03000900  0.49323898  0.94756929    -0.40300
H893        H  0.09293841  0.45675126  0.93769673     0.12500
H894        H  0.12107944  0.45849477  0.90320634     0.12200
H895        H  0.07866999  0.51835799  0.87321264     0.11600
H896        H  0.05102273  0.51707126  0.90810865     0.11800
H897        H  0.11738809  0.50781189  0.85365929     0.14600
H898        H  0.13669259  0.45622254  0.86614222     0.13300
H899        H  0.06047633  0.47622786  0.96333250     0.11000
H900        H  0.02152336  0.49986920  0.93110643     0.13000
C901        C  0.10110810  0.59053180  0.01332776     0.19100
C902        C  0.10082136  0.56596011  0.02109376    -0.19000
C903        C  0.08127034  0.55050847  0.01512841    -0.11200
C904        C  0.06141235  0.55949748  0.00157534     0.21400
C905        C  0.06130664  0.58426944  0.99455918    -0.20600
C906        C  0.08097403  0.59959124  0.00019948    -0.11400
C907        C  0.03975822  0.54406939  0.99607709    -0.15600
C908        C  0.04100999  0.51951338  0.99274501    -0.29400
C909        C  0.12240274  0.60645684  0.01924178    -0.03700
C910        C  0.13009354  0.62410413  0.00399018    -0.40300
H911        H  0.11588589  0.55864082  0.03155366     0.12500
H912        H  0.08147592  0.53172558  0.02160090     0.12200
H913        H  0.04596890  0.59177479  0.98461260     0.11600
H914        H  0.08015693  0.61865458  0.99461354     0.11800
H915        H  0.02201456  0.55320832  0.99485984     0.14600
H916        H  0.05867752  0.51021820  0.99223320     0.13300
H917        H  0.13269320  0.60270381  0.03560725     0.11000
H918        H  0.12093265  0.62638439  0.98672789     0.13000
C919        C  0.99673320  0.55086546  0.06222779     0.19100
C920        C  0.97683293  0.56121943  0.07494511    -0.19000
C921        C  0.98059632  0.57580488  0.09544547    -0.11200
C922        C  0.00455395  0.58076339  0.10343687     0.21400
C923        C  0.02448476  0.57037233  0.09057737    -0.20600
C924        C  0.02068195  0.55562233  0.07012173    -0.11400
C925        C  0.00965977  0.59665990  0.12483354    -0.15600
C926        C  0.99245339  0.61001931  0.13669338    -0.29400
C927        C  0.99173550  0.53584766  0.04044252    -0.03700
C928        C  0.00665363  0.51770797  0.03258700    -0.40300
H929        H  0.95823398  0.55777254  0.06913117     0.12500
H930        H  0.96450247  0.58283539  0.10479650     0.12200
H931        H  0.04312706  0.57391567  0.09620928     0.11600
H932        H  0.03651154  0.54850390  0.06028208     0.11800
H933        H  0.02861138  0.59780991  0.13077241     0.14600
H934        H  0.97344046  0.60977543  0.13114429     0.13300
H935        H  0.97482857  0.53945527  0.03075520     0.11000
H936        H  0.02374688  0.51372341  0.04172847     0.13000
C937        C  0.88815085  0.49691457  0.08972588     0.19100
C938        C  0.90567138  0.47800587  0.08650216    -0.19000
C939        C  0.92301144  0.47880434  0.06759310    -0.11200
C940        C  0.92321689  0.49858758  0.05124023     0.21400
C941        C  0.90561082  0.51742875  0.05429112    -0.20600
C942        C  0.88833273  0.51672379  0.07334658    -0.11400
C943        C  0.94061343  0.49947435  0.03016395    -0.15600
C944        C  0.96270083  0.48815075  0.02970545    -0.29400
C945        C  0.86945786  0.49437378  0.10959191    -0.03700
C946        C  0.85507004  0.51276473  0.11854794    -0.40300
H947        H  0.90582715  0.46234009  0.09859555     0.12500
H948        H  0.93573871  0.46355392  0.06547483     0.12200
H949        H  0.90515205  0.53274342  0.04178040     0.11600
H950        H  0.87487134  0.53138355  0.07472944     0.11800
H951        H  0.93541737  0.51050323  0.01460286     0.14600
H952        H  0.96936464  0.47863742  0.04562416     0.13300
H953        H  0.86789244  0.47622592  0.11765665     0.11000
H954        H  0.85687999  0.53135643  0.11171413     0.13000
C955        C  0.93731261  0.41657672  0.99031487     0.19100
C956        C  0.93563755  0.39475448  0.97673448    -0.19000
C957        C  0.91681470  0.37808344  0.98150359    -0.11200
C958        C  0.89975200  0.38285165  0.00030654     0.21400
C959        C  0.90198406  0.40426509  0.01439215    -0.20600
C960        C  0.92047055  0.42111534  0.00934136    -0.11400
C961        C  0.87978079  0.36559894  0.00608263    -0.15600
C962        C  0.86786115  0.35299566  0.98886680    -0.29400
C963        C  0.95756538  0.43375288  0.98543916    -0.03700
C964        C  0.95455508  0.45823930  0.98746778    -0.40300
H965        H  0.94877726  0.39074122  0.96233153     0.12500
H966        H  0.91588476  0.36132258  0.97081063     0.12200
H967        H  0.88923771  0.40806511  0.02918919     0.11600
H968        H  0.92189700  0.43740724  0.02067475     0.11800
H969        H  0.87359563  0.36459579  0.02487564     0.14600
H970        H  0.87268338  0.35537258  0.96984193     0.13300
H971        H  0.97545894  0.42604152  0.98080293     0.11000
H972        H  0.93661355  0.46581148  0.99206694     0.13000
C973        C  0.99453108  0.38934705  0.88072163     0.19100
C974        C  0.97433913  0.39864070  0.89403935    -0.19000
C975        C  0.97740363  0.41659083  0.91209598    -0.11200
C976        C  0.00083911  0.42586962  0.91709741     0.21400
C977        C  0.02099207  0.41685879  0.90359604    -0.20600
C978        C  0.01792336  0.39896606  0.88548249    -0.11400
C979        C  0.00524387  0.44364901  0.93721489    -0.15600
C980        C  0.98829103  0.45969374  0.94592660    -0.29400
C981        C  0.99026346  0.36981521  0.86208024    -0.03700
C982        C  0.00790765  0.35471564  0.85300875    -0.40300
H983        H  0.95610921  0.39160911  0.89079461     0.12500
H984        H  0.96150594  0.42253438  0.92253430     0.12200
H985        H  0.03924187  0.42372468  0.90708941     0.11600
H986        H  0.03391185  0.39293682  0.87526835     0.11800
H987        H  0.02324998  0.44322005  0.94545594     0.14600
H988        H  0.97002560  0.46008765  0.93830783     0.13300
H989        H  0.97144927  0.36708028  0.85636330     0.11000
H990        H  0.02666778  0.35629725  0.85913686     0.13000
C991        C  0.28342128  0.79774244  0.08024111     0.19100
C992        C  0.27596880  0.81636220  0.09660017    -0.19000
C993        C  0.26267732  0.81073174  0.11768549    -0.11200
C994        C  0.25682398  0.78616717  0.12307974     0.21400
C995        C  0.26313702  0.76770503  0.10609509    -0.20600
C996        C  0.27641121  0.77333827  0.08494826    -0.11400
C997        C  0.24622307  0.77877980  0.14698956    -0.15600
C998        C  0.25085154  0.79116651  0.16768951    -0.29400
C999        C  0.30003130  0.80437392  0.05971284    -0.03700
C1000       C  0.30296728  0.79108687  0.03909771    -0.40300
H1001       H  0.28092201  0.83535237  0.09330861     0.12500
H1002       H  0.25750580  0.82558257  0.12992402     0.12200
H1003       H  0.25881954  0.74865461  0.10978103     0.11600
H1004       H  0.28206579  0.75842043  0.07300371     0.11800
H1005       H  0.23825579  0.76052242  0.14827325     0.14600
H1006       H  0.26110139  0.80820526  0.16700482     0.13300
H1007       H  0.30998947  0.82155801  0.06152688     0.11000
H1008       H  0.29194263  0.77484325  0.03590990     0.13000
C1009       C  0.36611172  0.80671422  0.27071663     0.19100
C1010       C  0.37074560  0.82992331  0.26050190    -0.19000
C1011       C  0.39460869  0.83640297  0.25344288    -0.11200
C1012       C  0.41437279  0.81979042  0.25623904     0.21400
C1013       C  0.41008131  0.79759052  0.26835176    -0.20600
C1014       C  0.38624521  0.79109250  0.27540749    -0.11400
C1015       C  0.43907581  0.82438632  0.24524866    -0.15600
C1016       C  0.44149496  0.83676289  0.22428798    -0.29400
C1017       C  0.34086963  0.79652713  0.27385530    -0.03700
C1018       C  0.31966599  0.80743153  0.26693729    -0.40300
H1019       H  0.35602367  0.84278979  0.25698517     0.12500
H1020       H  0.39739632  0.85419800  0.24516460     0.12200
H1021       H  0.42495576  0.78460121  0.27110940     0.11600
H1022       H  0.38338903  0.77314384  0.28341120     0.11800
H1023       H  0.45506093  0.81559071  0.25313891     0.14600
H1024       H  0.42517722  0.84409269  0.21570447     0.13300
H1025       H  0.33998178  0.77723551  0.27902404     0.11000
H1026       H  0.31899304  0.82644928  0.26116680     0.13000
C1027       C  0.37362585  0.21523331  0.78616262     0.19100
C1028       C  0.37874864  0.21188444  0.81088531    -0.19000
C1029       C  0.40285590  0.20685558  0.81836694    -0.11200
C1030       C  0.42231157  0.20493287  0.80122958     0.21400
C1031       C  0.41721002  0.20954102  0.77681140    -0.20600
C1032       C  0.39324473  0.21437501  0.76936778    -0.11400
C1033       C  0.44774854  0.19690734  0.80771903    -0.15600
C1034       C  0.45224398  0.18268045  0.82704618    -0.29400
C1035       C  0.34837713  0.21835529  0.77636231    -0.03700
C1036       C  0.32741277  0.22348852  0.78896270    -0.40300
H1037       H  0.36420080  0.21246444  0.82439425     0.12500
H1038       H  0.40604989  0.20430182  0.83751907     0.12200
H1039       H  0.43170155  0.20843000  0.76321359     0.11600
H1040       H  0.38995831  0.21689335  0.75019002     0.11800
H1041       H  0.46265404  0.20065174  0.79503715     0.14600
H1042       H  0.43711201  0.17774147  0.83895980     0.13300
H1043       H  0.34722586  0.21687161  0.75672128     0.11000
H1044       H  0.32758992  0.22660738  0.80841627     0.13000
C1045       C  0.28602899  0.06888302  0.80416480     0.19100
C1046       C  0.27638921  0.07223977  0.78092508    -0.19000
C1047       C  0.27083960  0.09577684  0.77247336    -0.11200
C1048       C  0.27416155  0.11664248  0.78722356     0.21400
C1049       C  0.28290512  0.11341706  0.81093224    -0.20600
C1050       C  0.28887601  0.08971602  0.81933161    -0.11400
C1051       C  0.27022191  0.14120486  0.77606592    -0.15600
C1052       C  0.26388729  0.16226885  0.78785896    -0.29400
C1053       C  0.29294581  0.04337619  0.81148039    -0.03700
C1054       C  0.30999022  0.03813377  0.82822450    -0.40300
H1055       H  0.27381390  0.05660416  0.76890931     0.12500
H1056       H  0.26422572  0.09772130  0.75411331     0.12200
H1057       H  0.28589626  0.12916485  0.82266084     0.11600
H1058       H  0.29569797  0.08782872  0.83759111     0.11800
H1059       H  0.27153069  0.14155675  0.75636282     0.14600
H1060       H  0.26050731  0.16239545  0.80730054     0.13300
H1061       H  0.28477596  0.02827139  0.80143883     0.11000
H1062       H  0.31907516  0.05294146  0.83781866     0.13000
C1063       C  0.68223362  0.20806998  0.08786332     0.19100
C1064       C  0.66737016  0.21865723  0.10620543    -0.19000
C1065       C  0.67770013  0.22806301  0.12750220    -0.11200
C1066       C  0.70311704  0.22650454  0.13110422     0.21400
C1067       C  0.71800804  0.21603601  0.11273599    -0.20600
C1068       C  0.70774349  0.20714693  0.09120541    -0.11400
C1069       C  0.71437064  0.23347549  0.15458895    -0.15600
C1070       C  0.70685947  0.25265561  0.16852504    -0.29400
C1071       C  0.67040513  0.19601986  0.06670751    -0.03700
C1072       C  0.68079694  0.19397790  0.04443623    -0.40300
H1073       H  0.64763636  0.21928234  0.10420332     0.12500
H1074       H  0.66571530  0.23554181  0.14155029     0.12200
H1075       H  0.73763182  0.21439693  0.11523283     0.11600
H1076       H  0.71966827  0.19857826  0.07772697     0.11800
H1077       H  0.73041438  0.22297436  0.16009995     0.14600
H1078       H  0.69255478  0.26503602  0.16230622     0.13300
H1079       H  0.65207746  0.18879340  0.06959674     0.11000
H1080       H  0.69819467  0.20280315  0.04058754     0.13000
C1081       C  0.70633164  0.13224234  0.21576629     0.19100
C1082       C  0.72281494  0.11221341  0.21483980    -0.19000
C1083       C  0.71602497  0.08956668  0.20488411    -0.11200
C1084       C  0.69241807  0.08627389  0.19542493     0.21400
C1085       C  0.67563982  0.10613307  0.19697657    -0.20600
C1086       C  0.68246107  0.12888497  0.20708268    -0.11400
C1087       C  0.68521481  0.06334382  0.18215399    -0.15600
C1088       C  0.69824630  0.04201282  0.18177616    -0.29400
C1089       C  0.71603490  0.15655674  0.22363485    -0.03700
C1090       C  0.70297968  0.17664406  0.23105666    -0.40300
H1091       H  0.74140289  0.11429602  0.22123971     0.12500
H1092       H  0.72978806  0.07517619  0.20384466     0.12200
H1093       H  0.65736020  0.10424796  0.18973474     0.11600
H1094       H  0.66939857  0.14399186  0.20713774     0.11800
H1095       H  0.66843833  0.06432695  0.17171618     0.14600
H1096       H  0.71443854  0.03987674  0.19281629     0.13300
H1097       H  0.73592444  0.15773997  0.22359834     0.11000
H1098       H  0.68320074  0.17603869  0.23309938     0.13000
C1099       C  0.39273715  0.99498041  0.90444596     0.19100
C1100       C  0.41661558  0.00428541  0.90284444    -0.19000
C1101       C  0.43284023  0.00151055  0.92216170    -0.11200
C1102       C  0.42519530  0.98995246  0.94368848     0.21400
C1103       C  0.40113652  0.98118083  0.94553531    -0.20600
C1104       C  0.38511631  0.98334305  0.92594698    -0.11400
C1105       C  0.44175701  0.98798446  0.96473746    -0.15600
C1106       C  0.46537204  0.98121106  0.96209205    -0.29400
C1107       C  0.37564744  0.99884847  0.88405435    -0.03700
C1108       C  0.35993264  0.98143927  0.87669792    -0.40300
H1109       H  0.42273302  0.01361442  0.88657150     0.12500
H1110       H  0.45114886  0.00896491  0.92052699     0.12200
H1111       H  0.39482480  0.97250079  0.96209002     0.11600
H1112       H  0.36658919  0.97652526  0.92783698     0.11800
H1113       H  0.43436900  0.99217283  0.98269146     0.14600
H1114       H  0.47263864  0.97717497  0.94405278     0.13300
H1115       H  0.37674365  0.01610349  0.87422458     0.11000
H1116       H  0.36030728  0.96338161  0.88507833     0.13000
C1117       C  0.44225386  0.90621814  0.00293163     0.19100
C1118       C  0.44083078  0.88553564  0.01799855    -0.19000
C1119       C  0.42110773  0.86925535  0.01613429    -0.11200
C1120       C  0.40279168  0.87320029  0.99873532     0.21400
C1121       C  0.40438614  0.89381289  0.98360143    -0.20600
C1122       C  0.42376224  0.91030387  0.98580051    -0.11400
C1123       C  0.38286912  0.85529840  0.99451783    -0.15600
C1124       C  0.37272534  0.84142369  0.01205341    -0.29400
C1125       C  0.46365126  0.92279303  0.00436255    -0.03700
C1126       C  0.46099839  0.94734690  0.00279207    -0.40300
H1127       H  0.45502272  0.88198560  0.03118540     0.12500
H1128       H  0.42068448  0.85321163  0.02767298     0.12200
H1129       H  0.39065742  0.89706286  0.96986994     0.11600
H1130       H  0.42468296  0.92582180  0.97358149     0.11800
H1131       H  0.37565605  0.85418341  0.97620740     0.14600
H1132       H  0.37833429  0.84364581  0.03080491     0.13300
H1133       H  0.48170311  0.91463179  0.00668935     0.11000
H1134       H  0.44265965  0.95486941  0.00091934     0.13000
C1135       C  0.56168206  0.05658516  0.01026131     0.19100
C1136       C  0.56858616  0.07080469  0.03041304    -0.19000
C1137       C  0.58530449  0.09011332  0.02784315    -0.11200
C1138       C  0.59545581  0.09564505  0.00490258     0.21400
C1139       C  0.58839420  0.08146847  0.98479027    -0.20600
C1140       C  0.57165929  0.06232709  0.98733376    -0.11400
C1141       C  0.61297366  0.11612792  0.00059097    -0.15600
C1142       C  0.62281401  0.13050515  0.01794335    -0.29400
C1143       C  0.54325739  0.03675667  0.01359485    -0.03700
C1144       C  0.54016824  0.01834475  0.99747498    -0.40300
H1145       H  0.56097098  0.06698724  0.04822002     0.12500
H1146       H  0.58987616  0.10062824  0.04385842     0.12200
H1147       H  0.59565071  0.08539967  0.96685667     0.11600
H1148       H  0.56623735  0.05262834  0.97107861     0.11800
H1149       H  0.61830266  0.11932975  0.98181161     0.14600
H1150       H  0.61848756  0.12773161  0.03695857     0.13300
H1151       H  0.53175016  0.03728792  0.02981466     0.11000
H1152       H  0.55144383  0.01705274  0.98121059     0.13000
C1153       C  0.50582177  0.05796310  0.94263832     0.19100
C1154       C  0.49415518  0.08099982  0.94415428    -0.19000
C1155       C  0.49665848  0.09797623  0.92537412    -0.11200
C1156       C  0.51110668  0.09229153  0.90473388     0.21400
C1157       C  0.52360717  0.06963503  0.90368126    -0.20600
C1158       C  0.52090290  0.05253464  0.92239193    -0.11400
C1159       C  0.51352978  0.10971411  0.88419781    -0.15600
C1160       C  0.49521749  0.12511345  0.87814785    -0.29400
C1161       C  0.50282862  0.04052233  0.96298619    -0.03700
C1162       C  0.50419622  0.01596926  0.96009699    -0.40300
H1163       H  0.48290892  0.08578749  0.95982815     0.12500
H1164       H  0.48749879  0.11565282  0.92724073     0.12200
H1165       H  0.53518981  0.06503126  0.88819984     0.11600
H1166       H  0.53091282  0.03527146  0.92113088     0.11800
H1167       H  0.53008911  0.10890612  0.87308884     0.14600
H1168       H  0.47799659  0.12468980  0.88817844     0.13300
H1169       H  0.49889689  0.04805065  0.98095570     0.11000
H1170       H  0.50598456  0.00791758  0.94207600     0.13000
C1171       C  0.49488459  0.89004891  0.11461437     0.19100
C1172       C  0.51532512  0.90130373  0.10388845    -0.19000
C1173       C  0.51252660  0.91740741  0.08436856    -0.11200
C1174       C  0.48911960  0.92242556  0.07489220     0.21400
C1175       C  0.46874729  0.91070763  0.08516782    -0.20600
C1176       C  0.47155332  0.89448079  0.10459376    -0.11400
C1177       C  0.48529925  0.94054157  0.05510263    -0.15600
C1178       C  0.50265081  0.94532194  0.03835909    -0.29400
C1179       C  0.49856802  0.87441150  0.13649711    -0.03700
C1180       C  0.48044599  0.86987669  0.15254389    -0.40300
H1181       H  0.53349159  0.89820284  0.11110470     0.12500
H1182       H  0.52866292  0.92646660  0.07735971     0.12200
H1183       H  0.45056757  0.91408241  0.07808354     0.11600
H1184       H  0.45534873  0.88550819  0.11154156     0.11800
H1185       H  0.46774425  0.95009086  0.05418590     0.14600
H1186       H  0.52011814  0.93564044  0.03891682     0.13300
H1187       H  0.51695305  0.86768188  0.14023649     0.11000
H1188       H  0.46225501  0.87736675  0.14959669     0.13000
C1189       C  0.61439731  0.98732920  0.09255277     0.19100
C1190       C  0.59385957  0.97208161  0.09465813    -0.19000
C1191       C  0.57624824  0.97162188  0.07643168    -0.11200
C1192       C  0.57926471  0.98599980  0.05551227     0.21400
C1193       C  0.59989231  0.00110132  0.05329943    -0.20600
C1194       C  0.61721959  0.00200189  0.07179849    -0.11400
C1195       C  0.56170328  0.98476810  0.03532365    -0.15600
C1196       C  0.53736509  0.98384352  0.03913395    -0.29400
C1197       C  0.63359051  0.98605293  0.11124028    -0.03700
C1198       C  0.64652882  0.00573129  0.11836855    -0.40300
H1199       H  0.59154025  0.96040025  0.11037803     0.12500
H1200       H  0.56073250  0.95945950  0.07834689     0.12200
H1201       H  0.60257355  0.01219503  0.03721501     0.11600
H1202       H  0.63320891  0.01348081  0.06948018     0.11800
H1203       H  0.56901615  0.98555065  0.01693886     0.14600
H1204       H  0.53027543  0.98280271  0.05760766     0.13300
H1205       H  0.63672314  0.96837275  0.11986832     0.11000
H1206       H  0.64211959  0.02392065  0.11150402     0.13000
C1207       C  0.80065141  0.93261658  0.28982833     0.19100
C1208       C  0.80099427  0.92637817  0.26508861    -0.19000
C1209       C  0.79491071  0.90260035  0.25737801    -0.11200
C1210       C  0.78763672  0.88454220  0.27411841     0.21400
C1211       C  0.78657955  0.89090643  0.29891038    -0.20600
C1212       C  0.79302726  0.91467203  0.30668223    -0.11400
C1213       C  0.78261909  0.85919218  0.26482065    -0.15600
C1214       C  0.76923752  0.84184894  0.27640283    -0.29400
C1215       C  0.80892629  0.95769937  0.29740995    -0.03700
C1216       C  0.82024999  0.96171732  0.31863367    -0.40300
H1217       H  0.80669158  0.93975809  0.25169007     0.12500
H1218       H  0.79605437  0.89825427  0.23818203     0.12200
H1219       H  0.78138634  0.87747425  0.31241020     0.11600
H1220       H  0.79198784  0.91892036  0.32587958     0.11800
H1221       H  0.78970690  0.85495382  0.24675152     0.14600
H1222       H  0.76056271  0.84588985  0.29378752     0.13300
H1223       H  0.80766138  0.97262033  0.28441168     0.11000
H1224       H  0.82317991  0.94631921  0.33077532     0.13000
C1225       C  0.74397421  0.87423661  0.19204357     0.19100
C1226       C  0.73772667  0.87952936  0.16793934    -0.19000
C1227       C  0.73281226  0.90396681  0.16106873    -0.11200
C1228       C  0.73414319  0.92339354  0.17819901     0.21400
C1229       C  0.74202928  0.91806295  0.20170417    -0.20600
C1230       C  0.74658614  0.89381843  0.20857927    -0.11400
C1231       C  0.72603171  0.94911090  0.17306409    -0.15600
C1232       C  0.70856769  0.95439737  0.15683493    -0.29400
C1233       C  0.74524611  0.84890144  0.20192697    -0.03700
C1234       C  0.74935723  0.82757761  0.18963717    -0.40300
H1235       H  0.73550542  0.86485851  0.15479248     0.12500
H1236       H  0.72750691  0.90747430  0.14251820     0.12200
H1237       H  0.74343113  0.93255627  0.21520205     0.11600
H1238       H  0.75130495  0.89025752  0.22731085     0.11800
H1239       H  0.73251930  0.96370264  0.18489059     0.14600
H1240       H  0.70107229  0.93977403  0.14572364     0.13300
H1241       H  0.74315960  0.84794744  0.22158737     0.11000
H1242       H  0.75373503  0.82741698  0.17035606     0.13000
C1243       C  0.91877412  0.68065795  0.19823256     0.19100
C1244       C  0.89890467  0.68429955  0.18264275    -0.19000
C1245       C  0.87701827  0.69474495  0.19121147    -0.11200
C1246       C  0.87452173  0.70180381  0.21571067     0.21400
C1247       C  0.89440253  0.69818365  0.23134833    -0.21800
C1248       C  0.91637862  0.68775560  0.22273501    -0.11400
C1249       C  0.85122789  0.71195101  0.22584411    -0.15600
C1250       C  0.83375915  0.72273395  0.21235935    -0.29400
C1251       C  0.94080898  0.66785335  0.18835827    -0.03700
C1252       C  0.96322743  0.66822370  0.19842068    -0.40300
H1253       H  0.90019013  0.67869305  0.16374906     0.12500
H1254       H  0.86197548  0.69651600  0.17870385     0.12200
H1255       H  0.89284259  0.70324716  0.25036972     0.11600
H1256       H  0.93104605  0.68466577  0.23544415     0.11800
H1257       H  0.84883388  0.71143231  0.24546574     0.14600
H1258       H  0.83636566  0.72523311  0.19298301     0.13300
H1259       H  0.93836738  0.65787777  0.17139679     0.11000
H1260       H  0.96671318  0.67905794  0.21460921     0.13000
C1261       C  0.87164671  0.78256907  0.29774331     0.19100
C1262       C  0.89352025  0.78092152  0.28406049    -0.19000
C1263       C  0.91513919  0.79160032  0.29224289    -0.11200
C1264       C  0.91560405  0.80417410  0.31460999     0.21400
C1265       C  0.89391704  0.80510758  0.32877239    -0.20600
C1266       C  0.87211746  0.79444070  0.32046790    -0.11400
C1267       C  0.93758164  0.81805329  0.32293018    -0.15600
C1268       C  0.96021776  0.81638410  0.31267242    -0.29400
C1269       C  0.84882615  0.77383794  0.28595063    -0.03700
C1270       C  0.82583822  0.77294895  0.29551559    -0.40300
H1271       H  0.89373486  0.77202382  0.26638575     0.12500
H1272       H  0.93102795  0.79064948  0.28040848     0.12200
H1273       H  0.89366184  0.81473093  0.34606054     0.11600
H1274       H  0.85564156  0.79630006  0.33143997     0.11800
H1275       H  0.93475704  0.83069933  0.33807755     0.14600
H1276       H  0.96409702  0.80323985  0.29825893     0.13300
H1277       H  0.85114380  0.76852961  0.26697209     0.11000
H1278       H  0.82219459  0.77631896  0.31464554     0.13000
C1279       C  0.70972933  0.59568524  0.32316189     0.19100
C1280       C  0.69992144  0.61927855  0.32780738    -0.19000
C1281       C  0.71315644  0.64057180  0.32196412    -0.11200
C1282       C  0.73670791  0.63885408  0.31115983     0.21400
C1283       C  0.74692638  0.61528082  0.30753880    -0.20600
C1284       C  0.73375236  0.59402176  0.31347529    -0.11400
C1285       C  0.75083281  0.66084609  0.30252633    -0.15600
C1286       C  0.74033965  0.68289748  0.29813843    -0.29400
C1287       C  0.69447317  0.57341893  0.32871018    -0.03700
C1288       C  0.69899105  0.55098209  0.31888897    -0.40300
H1289       H  0.68172094  0.62128260  0.33568535     0.12500
H1290       H  0.70472383  0.65821560  0.32596929     0.12200
H1291       H  0.76510640  0.61323903  0.29961685     0.11600
H1292       H  0.74265195  0.57641528  0.31046413     0.11800
H1293       H  0.76985336  0.65803754  0.29701107     0.14600
H1294       H  0.72091881  0.68553923  0.30171874     0.13300
H1295       H  0.67841517  0.57583761  0.34035783     0.11000
H1296       H  0.71424214  0.54861213  0.30629439     0.13000
C1297       C  0.78227863  0.59060671  0.18024653     0.19100
C1298       C  0.78012840  0.59330558  0.20559195    -0.19000
C1299       C  0.77218573  0.61567643  0.21599281    -0.11200
C1300       C  0.76587296  0.63601012  0.20151777     0.21400
C1301       C  0.76712470  0.63315937  0.17614446    -0.20600
C1302       C  0.77541469  0.61078063  0.16568618    -0.11400
C1303       C  0.76125745  0.66029085  0.21391735    -0.15600
C1304       C  0.74866362  0.68003061  0.20526473    -0.29400
C1305       C  0.79368328  0.56807753  0.16859178    -0.03700
C1306       C  0.79504996  0.54550401  0.17900286    -0.40300
H1307       H  0.78566865  0.57861499  0.21756780     0.12500
H1308       H  0.77167854  0.61733553  0.23560635     0.12200
H1309       H  0.76287113  0.64849260  0.16440967     0.11600
H1310       H  0.77704413  0.60941914  0.14610948     0.11800
H1311       H  0.76879077  0.66182059  0.23206509     0.14600
H1312       H  0.73907377  0.67893279  0.18814008     0.13300
H1313       H  0.80140605  0.57030337  0.15047896     0.11000
H1314       H  0.78604950  0.54236550  0.19635360     0.13000
C1315       C  0.62553064  0.80861731  0.22468344     0.19100
C1316       C  0.60678700  0.81395419  0.24168434    -0.19000
C1317       C  0.58302303  0.81997358  0.23416790    -0.11200
C1318       C  0.57737570  0.82094238  0.20931015     0.21400
C1319       C  0.59617604  0.81580306  0.19229367    -0.20600
C1320       C  0.61993313  0.80959220  0.19982677    -0.11400
C1321       C  0.55263220  0.82855170  0.20042097    -0.15600
C1322       C  0.53170106  0.82702598  0.21367229    -0.29400
C1323       C  0.65070961  0.80321574  0.23378662    -0.03700
C1324       C  0.66850939  0.79112478  0.22115242    -0.40300
H1325       H  0.61058059  0.81360082  0.26095014     0.12500
H1326       H  0.56939047  0.82448913  0.24791346     0.12200
H1327       H  0.59249258  0.81672585  0.17302899     0.11600
H1328       H  0.63392180  0.80619228  0.18612529     0.11800
H1329       H  0.55162547  0.83534045  0.18193206     0.14600
H1330       H  0.53206046  0.81909606  0.23169586     0.13300
H1331       H  0.65433629  0.80839514  0.25250015     0.11000
H1332       H  0.66503800  0.78404017  0.20307283     0.13000
C1333       C  0.63153857  0.74198376  0.30187768     0.19100
C1334       C  0.60886812  0.74940936  0.29245803    -0.19000
C1335       C  0.58693339  0.74168889  0.30311006    -0.11200
C1336       C  0.58725576  0.72603200  0.32335649     0.21400
C1337       C  0.60996754  0.72007882  0.33379596    -0.20600
C1338       C  0.63194794  0.72791607  0.32316429    -0.11400
C1339       C  0.56486633  0.71388415  0.33304739    -0.15600
C1340       C  0.54286724  0.71380540  0.32201513    -0.29400
C1341       C  0.65377577  0.74612079  0.28689812    -0.03700
C1342       C  0.67704751  0.74521740  0.29477327    -0.40300
H1343       H  0.60812201  0.76041612  0.27612597     0.12500
H1344       H  0.57000460  0.74745086  0.29481229     0.12200
H1345       H  0.61079187  0.70822144  0.34951883     0.11600
H1346       H  0.64909494  0.72163409  0.33075014     0.11800
H1347       H  0.56720521  0.70275957  0.34921002     0.14600
H1348       H  0.53953026  0.72464912  0.30594149     0.13300
H1349       H  0.65074761  0.74939653  0.26766802     0.11000
H1350       H  0.68136169  0.74420978  0.31392766     0.13000
C1351       C  0.91577648  0.28598029  0.78221199     0.19100
C1352       C  0.90927952  0.26195463  0.77560455    -0.19000
C1353       C  0.88491413  0.25602092  0.77091414    -0.11200
C1354       C  0.86625304  0.27399339  0.77222526     0.21400
C1355       C  0.87266359  0.29837803  0.77789181    -0.20600
C1356       C  0.89722634  0.30432526  0.78288795    -0.11400
C1357       C  0.84048758  0.26546594  0.76972934    -0.15600
C1358       C  0.82051837  0.27890848  0.76334443    -0.29400
C1359       C  0.94198932  0.29069580  0.78845525    -0.03700
C1360       C  0.94926732  0.30927374  0.80292195    -0.40300
H1361       H  0.92303978  0.24747017  0.77473045     0.12500
H1362       H  0.88056277  0.23705629  0.76659116     0.12200
H1363       H  0.85871824  0.31261716  0.77923478     0.11600
H1364       H  0.90153464  0.32322640  0.78730654     0.11800
H1365       H  0.83809627  0.24582276  0.77260297     0.14600
H1366       H  0.82213267  0.29814929  0.75840663     0.13300
H1367       H  0.95560952  0.27727454  0.78229539     0.11000
H1368       H  0.93575957  0.32220929  0.81014992     0.13000
C1369       C  0.91157005  0.18190045  0.71894182     0.19100
C1370       C  0.89926773  0.18062315  0.74145412    -0.19000
C1371       C  0.87360961  0.18343053  0.74287837    -0.11200
C1372       C  0.85997558  0.18799338  0.72176520     0.21400
C1373       C  0.87237984  0.18927430  0.69940056    -0.20600
C1374       C  0.89775269  0.18619227  0.69794680    -0.11400
C1375       C  0.83376113  0.19559934  0.72248187    -0.15600
C1376       C  0.81712478  0.18953436  0.73969766    -0.29400
C1377       C  0.93877367  0.17914951  0.71714468    -0.03700
C1378       C  0.94892600  0.16669399  0.69838638    -0.40300
H1379       H  0.90952152  0.17754482  0.75792115     0.12500
H1380       H  0.86468193  0.18314964  0.76050272     0.12200
H1381       H  0.86241815  0.19335561  0.68295006     0.11600
H1382       H  0.90665255  0.18793183  0.68039291     0.11800
H1383       H  0.82820076  0.20834744  0.70835064     0.14600
H1384       H  0.82141576  0.17584121  0.75333823     0.13300
H1385       H  0.95025638  0.18670917  0.73132419     0.11000
H1386       H  0.93683462  0.15735487  0.68579476     0.13000
C1387       C  0.69083325  0.19230949  0.92120357     0.19100
C1388       C  0.71358626  0.18799544  0.90972911    -0.19000
C1389       C  0.71664218  0.19228184  0.88478483    -0.11200
C1390       C  0.69704592  0.20146389  0.87098749     0.21400
C1391       C  0.67443562  0.20607290  0.88257718    -0.20600
C1392       C  0.67125980  0.20136170  0.90732907    -0.11400
C1393       C  0.70042318  0.20957480  0.84547668    -0.15600
C1394       C  0.71676148  0.19958506  0.82964887    -0.29400
C1395       C  0.68782446  0.18775919  0.94769016    -0.03700
C1396       C  0.66701618  0.17826544  0.95679953    -0.40300
H1397       H  0.72900300  0.18127341  0.92009124     0.12500
H1398       H  0.73454786  0.18934337  0.87657871     0.12200
H1399       H  0.65923990  0.21369838  0.87248328     0.11600
H1400       H  0.65366184  0.20546765  0.91574149     0.11800
H1401       H  0.68957626  0.22539826  0.83987701     0.14600
H1402       H  0.72682980  0.18297856  0.83433071     0.13300
H1403       H  0.70329264  0.19089741  0.95957185     0.11000
H1404       H  0.65255389  0.17299436  0.94441425     0.13000
C1405       C  0.78606594  0.30603124  0.91776664     0.19100
C1406       C  0.78700711  0.32020445  0.89648397    -0.19000
C1407       C  0.77813808  0.31097420  0.87449755    -0.11200
C1408       C  0.76814823  0.28723954  0.87337777     0.21400
C1409       C  0.76637793  0.27344433  0.89482387    -0.20600
C1410       C  0.77520452  0.28266067  0.91677654    -0.11400
C1411       C  0.76166127  0.27501262  0.85015475    -0.15600
C1412       C  0.75824242  0.28623670  0.82861158    -0.29400
C1413       C  0.79883212  0.31531948  0.93970525    -0.03700
C1414       C  0.79696967  0.30560390  0.96217038    -0.40300
H1415       H  0.79542115  0.33821649  0.89667661     0.12500
H1416       H  0.78018868  0.32202249  0.85835309     0.12200
H1417       H  0.75885880  0.25502484  0.89444591     0.11600
H1418       H  0.77443393  0.27089377  0.93250484     0.11800
H1419       H  0.75963768  0.25510809  0.85094394     0.14600
H1420       H  0.75821282  0.30614718  0.82710831     0.13300
H1421       H  0.81111762  0.33073464  0.93690380     0.11000
H1422       H  0.78399652  0.29110918  0.96610060     0.13000
C1423       C  0.61845744  0.20103979  0.76858556     0.19100
C1424       C  0.61490946  0.17776432  0.77904691    -0.19000
C1425       C  0.59139506  0.17060461  0.78698473    -0.11200
C1426       C  0.57098810  0.18662987  0.78467285     0.21400
C1427       C  0.57451438  0.20919131  0.77296206    -0.20600
C1428       C  0.59788226  0.21635757  0.76523073    -0.11400
C1429       C  0.54601245  0.18118578  0.79487500    -0.15600
C1430       C  0.54221080  0.16562218  0.81344698    -0.29400
C1431       C  0.64314966  0.21160022  0.76343807    -0.03700
C1432       C  0.66459543  0.19919029  0.75999659    -0.40300
H1433       H  0.63032201  0.16552908  0.78202401     0.12500
H1434       H  0.58942653  0.15267705  0.79517703     0.12200
H1435       H  0.55926323  0.22182421  0.77063521     0.11600
H1436       H  0.59999473  0.23438768  0.75717648     0.11800
H1437       H  0.53055565  0.19181808  0.78820319     0.14600
H1438       H  0.55766457  0.15569377  0.82096839     0.13300
H1439       H  0.64355852  0.23159344  0.76243329     0.11000
H1440       H  0.66509184  0.17923712  0.75895131     0.13000
C1441       C  0.62922399  0.29066772  0.70969969     0.19100
C1442       C  0.60928309  0.27535058  0.70449337    -0.19000
C1443       C  0.58674339  0.28524579  0.69763860    -0.11200
C1444       C  0.58357631  0.31085288  0.69580742     0.21400
C1445       C  0.60344851  0.32625673  0.70118179    -0.20600
C1446       C  0.62607035  0.31631444  0.70818685    -0.11400
C1447       C  0.56064815  0.32192546  0.68627960    -0.15600
C1448       C  0.53870294  0.31058808  0.68643444    -0.29400
C1449       C  0.65297869  0.27866073  0.71543147    -0.03700
C1450       C  0.67235874  0.28937954  0.72621234    -0.40300
H1451       H  0.61124350  0.25549671  0.70537104     0.12500
H1452       H  0.57222700  0.27268220  0.69295020     0.12200
H1453       H  0.60156427  0.34605348  0.69958287     0.11600
H1454       H  0.64109429  0.32868302  0.71166534     0.11800
H1455       H  0.56207806  0.34018421  0.67845245     0.14600
H1456       H  0.53636583  0.29306241  0.69546599     0.13300
H1457       H  0.65398644  0.25901984  0.71147721     0.11000
H1458       H  0.67178441  0.30859374  0.73173938     0.13000
C1459       C  0.71227468  0.30407649  0.58497138     0.19100
C1460       C  0.73516858  0.29290440  0.58931177    -0.19000
C1461       C  0.74215233  0.28649912  0.61296727    -0.11200
C1462       C  0.72622094  0.29096102  0.63282591     0.21400
C1463       C  0.70332879  0.30195681  0.62842552    -0.20600
C1464       C  0.69642435  0.30844256  0.60491812    -0.11400
C1465       C  0.73140209  0.28228846  0.65793314    -0.15600
C1466       C  0.75384383  0.27694111  0.66673632    -0.29400
C1467       C  0.70487774  0.30979532  0.55947953    -0.03700
C1468       C  0.68769130  0.32689298  0.55418701    -0.40300
H1469       H  0.74760260  0.28891974  0.57432109     0.12500
H1470       H  0.75961836  0.27732559  0.61546095     0.12200
H1471       H  0.69046137  0.30514924  0.64324919     0.11600
H1472       H  0.67826029  0.31609929  0.60248586     0.11800
H1473       H  0.71551553  0.27960089  0.66967741     0.14600
H1474       H  0.77016786  0.28007021  0.65580317     0.13300
H1475       H  0.71401138  0.29988225  0.54473729     0.11000
H1476       H  0.67955560  0.33788383  0.56870413     0.13000
C1477       C  0.78164813  0.18168471  0.58422793     0.19100
C1478       C  0.78014571  0.16541420  0.60393035    -0.19000
C1479       C  0.76535752  0.17093005  0.62424353    -0.11200
C1480       C  0.75186181  0.19311358  0.62550408     0.21400
C1481       C  0.75269086  0.20900313  0.60547581    -0.20600
C1482       C  0.76747716  0.20349156  0.58515405    -0.11400
C1483       C  0.73807490  0.20115628  0.64781328    -0.15600
C1484       C  0.74430186  0.19400179  0.67032734    -0.29400
C1485       C  0.79910679  0.17578258  0.56382694    -0.03700
C1486       C  0.79821017  0.18621962  0.54167513    -0.40300
H1487       H  0.79069158  0.14843236  0.60373159     0.12500
H1488       H  0.76476119  0.15785319  0.63896900     0.12200
H1489       H  0.74258368  0.22625686  0.60593186     0.11600
H1490       H  0.76833576  0.21685209  0.57071097     0.11800
H1491       H  0.72502253  0.21626666  0.64603934     0.14600
H1492       H  0.75921934  0.18094539  0.67268336     0.13300
H1493       H  0.81309296  0.16188747  0.56713939     0.11000
H1494       H  0.78363146  0.19911772  0.53744797     0.13000
C1495       C  0.30804237  0.77159919  0.91834377     0.19100
C1496       C  0.30621221  0.74801114  0.90792902    -0.19000
C1497       C  0.29968927  0.74516541  0.88347063    -0.11200
C1498       C  0.29439045  0.76594732  0.86924691     0.21400
C1499       C  0.29622353  0.78943616  0.87973554    -0.20600
C1500       C  0.30313168  0.79228430  0.90390117    -0.11400
C1501       C  0.28336692  0.76389094  0.84483230    -0.15600
C1502       C  0.28763418  0.74539798  0.82886305    -0.29400
C1503       C  0.31371765  0.77464041  0.94454275    -0.03700
C1504       C  0.32742383  0.79349584  0.95237539    -0.40300
H1505       H  0.30960480  0.73179520  0.91879550     0.12500
H1506       H  0.29766522  0.72678577  0.87609608     0.12200
H1507       H  0.29168946  0.80569028  0.86931507     0.11600
H1508       H  0.30367538  0.81068585  0.91152964     0.11800
H1509       H  0.27023189  0.77822596  0.84011081     0.14600
H1510       H  0.30175440  0.73166388  0.83224416     0.13300
H1511       H  0.30659771  0.76132656  0.95741809     0.11000
H1512       H  0.33606379  0.80546101  0.93910154     0.13000
C1513       C  0.18469019  0.69418684  0.92613037     0.19100
C1514       C  0.16772873  0.69770738  0.90730744    -0.19000
C1515       C  0.17548669  0.70442829  0.88388396    -0.11200
C1516       C  0.20054352  0.70766964  0.87870614     0.21400
C1517       C  0.21735394  0.70514382  0.89778853    -0.20600
C1518       C  0.20961265  0.69849928  0.92116841    -0.11400
C1519       C  0.21049587  0.71154812  0.85362141    -0.15600
C1520       C  0.19765398  0.71793483  0.83364347    -0.29400
C1521       C  0.17584189  0.68363937  0.94963559    -0.03700
C1522       C  0.18877232  0.68250093  0.97049587    -0.40300
H1523       H  0.14839826  0.69445444  0.91053450     0.12500
H1524       H  0.16193960  0.70600365  0.86977163     0.12200
H1525       H  0.23679815  0.70753750  0.89440670     0.11600
H1526       H  0.22338521  0.69571076  0.93487210     0.11800
H1527       H  0.23022861  0.70913597  0.85156248     0.14600
H1528       H  0.17826504  0.72240841  0.83490708     0.13300
H1529       H  0.15760749  0.67571901  0.94945306     0.11000
H1530       H  0.20645931  0.69133137  0.97191945     0.13000
C1531       C  0.19741893  0.89619938  0.68961288     0.19100
C1532       C  0.17934906  0.87821914  0.69288456    -0.19000
C1533       C  0.18538737  0.85531489  0.70249933    -0.11200
C1534       C  0.20967385  0.85015606  0.70874250     0.21400
C1535       C  0.22783065  0.86797928  0.70518528    -0.20600
C1536       C  0.22180357  0.89084096  0.69570971    -0.11400
C1537       C  0.21749642  0.82603508  0.71753517    -0.15600
C1538       C  0.20339254  0.80980215  0.72972390    -0.29400
C1539       C  0.19035037  0.91981564  0.67864747    -0.03700
C1540       C  0.20308057  0.94066899  0.68161093    -0.40300
H1541       H  0.16052345  0.88190100  0.68789355     0.12500
H1542       H  0.17123587  0.84157568  0.70443779     0.12200
H1543       H  0.24679358  0.86413141  0.70958024     0.11600
H1544       H  0.23638500  0.90388330  0.69261453     0.11800
H1545       H  0.23694270  0.82227066  0.71487690     0.14600
H1546       H  0.18425985  0.81357728  0.73394848     0.13300
H1547       H  0.17356811  0.92009448  0.66817097     0.11000
H1548       H  0.21906836  0.94123143  0.69316160     0.13000
C1549       C  0.30563842  0.90331002  0.80291816     0.19100
C1550       C  0.32051666  0.88215887  0.80078765    -0.19000
C1551       C  0.31112453  0.86010283  0.79167868    -0.11200
C1552       C  0.28648558  0.85868886  0.78459512     0.21400
C1553       C  0.27177652  0.88000736  0.78605558    -0.20600
C1554       C  0.28118870  0.90208317  0.79511267    -0.11400
C1555       C  0.27472872  0.83501366  0.77804203    -0.15600
C1556       C  0.28693219  0.81425868  0.77158411    -0.29400
C1557       C  0.31577743  0.92549971  0.81513519    -0.03700
C1558       C  0.30625141  0.94839238  0.81327792    -0.40300
H1559       H  0.33934968  0.88251899  0.80680925     0.12500
H1560       H  0.32296947  0.84404290  0.79133527     0.12200
H1561       H  0.25268068  0.87938680  0.78088984     0.11600
H1562       H  0.26889598  0.91772348  0.79691566     0.11800
H1563       H  0.25480444  0.83464051  0.77883690     0.14600
H1564       H  0.30662342  0.81425269  0.76870771     0.13300
H1565       H  0.33200862  0.92279011  0.82610134     0.11000
H1566       H  0.29096952  0.95193566  0.80133537     0.13000
C1567       C  0.31482532  0.70199767  0.57929945     0.19100
C1568       C  0.33108148  0.70960985  0.59751459    -0.19000
C1569       C  0.32256751  0.71417202  0.62133145    -0.11200
C1570       C  0.29769863  0.71069768  0.62728299     0.21400
C1571       C  0.28148498  0.70382059  0.60887019    -0.20600
C1572       C  0.28986321  0.69950573  0.58525307    -0.11400
C1573       C  0.28786080  0.71122214  0.65252898    -0.15600
C1574       C  0.29706449  0.72371037  0.67160445    -0.29400
C1575       C  0.32436213  0.69428900  0.55497497    -0.03700
C1576       C  0.31037286  0.69490651  0.53495528    -0.40300
H1577       H  0.35044205  0.71141404  0.59343993     0.12500
H1578       H  0.33559109  0.71916929  0.63518885     0.12200
H1579       H  0.26226166  0.70089232  0.61296734     0.11600
H1580       H  0.27683298  0.69293647  0.57206218     0.11800
H1581       H  0.27085665  0.70124291  0.65525148     0.14600
H1582       H  0.31288181  0.73551263  0.66940273     0.13300
H1583       H  0.34295430  0.68705161  0.55375219     0.11000
H1584       H  0.29240787  0.70361137  0.53572269     0.13000
C1585       C  0.20878465  0.78215816  0.63769091     0.19100
C1586       C  0.20858714  0.80702899  0.63080677    -0.19000
C1587       C  0.20381200  0.81378799  0.60682932    -0.11200
C1588       C  0.19929364  0.79576160  0.58902169     0.21400
C1589       C  0.19943874  0.77086153  0.59586804    -0.20600
C1590       C  0.20394536  0.76409050  0.61997457    -0.11400
C1591       C  0.19585549  0.80232922  0.56301134    -0.15600
C1592       C  0.18546817  0.82368730  0.55589781    -0.29400
C1593       C  0.21716209  0.77594077  0.66257854    -0.03700
C1594       C  0.21363338  0.75418089  0.67376132    -0.40300
H1595       H  0.21271886  0.82129564  0.64394530     0.12500
H1596       H  0.20457090  0.83309617  0.60212665     0.12200
H1597       H  0.19632742  0.75659204  0.58245097     0.11600
H1598       H  0.20465128  0.74470416  0.62436295     0.11800
H1599       H  0.20130302  0.78879192  0.54934065     0.14600
H1600       H  0.17817092  0.83645102  0.56944040     0.13300
H1601       H  0.22787103  0.78989280  0.67179685     0.11000
H1602       H  0.20201635  0.74023191  0.66582160     0.13000
C1603       C  0.29995118  0.61483857  0.74164603     0.19100
C1604       C  0.28631674  0.59303113  0.74164238    -0.19000
C1605       C  0.29360612  0.57283691  0.72737113    -0.11200
C1606       C  0.31504005  0.57381858  0.71291210     0.21400
C1607       C  0.32882997  0.59556726  0.71311734    -0.20600
C1608       C  0.32150955  0.61580316  0.72739460    -0.11400
C1609       C  0.32319962  0.55301658  0.69682395    -0.15600
C1610       C  0.31517606  0.52971889  0.69917683    -0.29400
C1611       C  0.29031105  0.63626708  0.75590774    -0.03700
C1612       C  0.29637731  0.65973900  0.75126531    -0.40300
H1613       H  0.26956573  0.59179602  0.75228799     0.12500
H1614       H  0.28193346  0.55684839  0.72737310     0.12200
H1615       H  0.34538264  0.59690812  0.70219346     0.11600
H1616       H  0.33289612  0.63201114  0.72719367     0.11800
H1617       H  0.33662802  0.55701576  0.68272598     0.14600
H1618       H  0.30260519  0.52501237  0.71373172     0.13300
H1619       H  0.27538156  0.63285316  0.76865790     0.11000
H1620       H  0.30968540  0.66396710  0.73718668     0.13000
C1621       C  0.18751584  0.56369730  0.77383476     0.19100
C1622       C  0.20571343  0.57113096  0.75724712    -0.19000
C1623       C  0.20888104  0.59609723  0.75186268    -0.11200
C1624       C  0.19391973  0.61415222  0.76315168     0.21400
C1625       C  0.17539949  0.60672201  0.77918358    -0.20600
C1626       C  0.17215984  0.58188323  0.78449242    -0.11400
C1627       C  0.19946728  0.64076494  0.76166991    -0.15600
C1628       C  0.21105446  0.65110840  0.74275930    -0.29400
C1629       C  0.18662534  0.53737351  0.78139418    -0.03700
C1630       C  0.16771595  0.52788444  0.79400682    -0.40300
H1631       H  0.21804707  0.55766030  0.74903827     0.12500
H1632       H  0.22386670  0.60123654  0.73995744     0.12200
H1633       H  0.16396464  0.62032303  0.78842146     0.11600
H1634       H  0.15840726  0.57746642  0.79796380     0.11800
H1635       H  0.19522888  0.65196745  0.77762973     0.14600
H1636       H  0.21446965  0.64056227  0.72622846     0.13300
H1637       H  0.20260925  0.52585497  0.77762114     0.11000
H1638       H  0.15133642  0.53877447  0.79748427     0.13000
loop_ 
_geom_bond_atom_site_label_1 
_geom_bond_atom_site_label_2 
_geom_bond_distance 
_geom_bond_site_symmetry_2 
_ccdc_geom_bond_type 
O1            C9   1.285       .  A
O1          Co21   1.887       .  S
O2           C10   1.261       .  A
O2          Co22   1.950       .  S
O3           C11   1.267       .  A
O3          Co23   1.903       .  S
O4           C12   1.269       .  A
O4          Co24   1.992       .  S
O5           C11   1.293       .  A
O5          Co22   2.076       .  S
O6           C12   1.269       .  A
O6          Co21   1.993       .  S
O7           C10   1.276       .  A
O7          Co24   2.030       .  S
O8            C9   1.301       .  A
O8          Co23   2.081       .  S
C9         C1612   1.471       .  S
C10        C1556   1.475       .  S
C11        C1574   1.486       .  S
C12        C1502   1.480       .  S
O13          C26   1.280       .  A
O13         Co21   2.003       .  S
O14          C27   1.262       .  A
O14         Co22   1.985       .  S
O15          C28   1.252       .  A
O15         Co23   1.972       .  S
O16          C29   1.280       .  A
O16         Co24   1.997       .  S
O17          C29   1.275       .  A
O17         Co22   1.964       .  S
O18          C28   1.259       .  A
O18         Co21   1.988       .  S
O19          C26   1.282       .  A
O19         Co24   2.009       .  S
O20          C27   1.264       .  A
O20         Co23   2.005       .  S
Co21         O25   1.881       .  S
Co22         O25   2.018       .  S
Co23         O25   1.992       .  S
Co24         O25   2.054       .  S
C26        C1520   1.491       .  S
C27        C1594   1.482       .  S
C28        C1628   1.474       .  S
C29        C1538   1.471       .  S
O30          C38   1.271       .  A
O30         Co50   1.906       .  S
O31          C39   1.270       .  A
O31         Co51   1.980       .  S
O32          C40   1.266       .  A
O32         Co52   1.983       .  S
O33          C41   1.276       .  A
O33         Co53   2.010       .  S
O34          C40   1.270       .  A
O34         Co51   1.997       .  S
O35          C41   1.278       .  A
O35         Co50   2.001       .  S
O36          C39   1.276       .  A
O36         Co53   2.014       .  S
O37          C38   1.295       .  A
O37         Co52   2.118       .  S
C38        C1484   1.475       .  S
C39        C1394   1.481       .  S
C40        C1376   1.484       .  S
C41        C1432   1.492       .  S
O42          C55   1.266       .  A
O42         Co50   1.984       .  S
O43          C56   1.276       .  A
O43         Co51   2.005       .  S
O44          C57   1.269       .  A
O44         Co52   1.904       .  S
O45          C58   1.269       .  A
O45         Co53   1.986       .  S
O46          C58   1.273       .  A
O46         Co51   2.003       .  S
O47          C57   1.297       .  A
O47         Co50   2.119       .  S
O48          C55   1.269       .  A
O48         Co53   1.997       .  S
O49          C56   1.278       .  A
O49         Co52   2.000       .  S
Co50         O54   2.000       .  S
Co51         O54   2.037       .  S
Co52         O54   1.995       .  S
Co53         O54   2.035       .  S
C55        C1450   1.482       .  S
C56        C1358   1.492       .  S
C57        C1466   1.486       .  S
C58        C1412   1.479       .  S
O59          C67   1.307       .  A
O59         Co79   2.091       .  S
O60          C68   1.273       .  A
O60         Co80   1.988       .  S
O61          C69   1.266       .  A
O61         Co81   2.013       .  S
O62          C70   1.269       .  A
O62         Co82   2.026       .  S
O63          C69   1.262       .  A
O63         Co80   1.980       .  S
O64          C70   1.272       .  A
O64         Co79   1.997       .  S
O65          C68   1.276       .  A
O65         Co82   2.000       .  S
O66          C67   1.280       .  A
O66         Co81   1.903       .  S
C67        C1324   1.485       .  S
C68        C1250   1.472       .  S
C69        C1234   1.485       .  S
C70        C1304   1.497       .  S
O71          C84   1.298       .  A
O71         Co79   2.110       .  S
O72          C85   1.279       .  A
O72         Co80   2.024       .  S
O73          C86   1.305       .  A
O73         Co81   2.088       .  S
O74          C87   1.277       .  A
O74         Co82   2.002       .  S
O75          C87   1.273       .  A
O75         Co80   1.990       .  S
O76          C86   1.279       .  A
O76         Co79   1.880       .  S
O77          C84   1.281       .  A
O77         Co82   1.912       .  S
O78          C85   1.276       .  A
O78         Co81   1.990       .  S
Co79         O83   2.018       .  S
Co80         O83   2.005       .  S
Co81         O83   1.994       .  S
Co82         O83   1.913       .  S
C84        C1286   1.483       .  S
C85        C1214   1.489       .  S
C86        C1342   1.470       .  S
C87        C1270   1.487       .  S
C88        C1162   1.490   1_565  S
C88          C89   1.412   1_565  A
C88          C93   1.411       .  A
C89        C1144   1.487       .  S
C89          C90   1.416   1_546  A
C90        C1196   1.493       .  S
C90          C91   1.418       .  A
C91        C1178   1.489       .  S
C91          C92   1.424       .  A
C92        C1126   1.492       .  S
C92          C93   1.420   1_554  A
C93        C1106   1.490       .  S
C94        C1088   1.486       .  S
C94          N95   1.361       .  A
C94          N99   1.366   1_545  A
N95          C96   1.356       .  A
C96        C1198   1.473       .  S
C96          N97   1.356   1_545  A
N97          C98   1.354       .  A
C98        C1232   1.481       .  S
C98          N99   1.365       .  A
C100       C1072   1.483       .  S
C100        N101   1.365       .  A
C100        N105   1.362       .  A
N101        C102   1.364   1_554  A
C102       C1396   1.477       .  S
C102        N103   1.355       .  A
N103        C104   1.356   1_556  A
C104       C1142   1.481       .  S
C104        N105   1.356       .  A
C106       C1054   1.484       .  S
C106        N107   1.358       .  A
C106        N111   1.363   1_545  A
N107        C108   1.359   1_545  A
C108       C1108   1.477       .  S
C108        N109   1.357       .  A
N109        C110   1.360       .  A
C110       C1558   1.482       .  S
C110        N111   1.361       .  A
C112       C1430   1.488       .  S
C112        N113   1.372       .  A
C112        N117   1.361       .  A
N113        C114   1.370       .  A
C114       C1034   1.483       .  S
C114        N115   1.354       .  A
N115        C116   1.350       .  A
C116       C1160   1.473       .  S
C116        N117   1.356       .  A
C118       C1016   1.480       .  S
C118        N119   1.363       .  A
C118        N123   1.352       .  A
N119        C120   1.367       .  A
C120       C1322   1.488       .  S
C120        N121   1.366       .  A
N121        C122   1.361       .  A
C122       C1180   1.477       .  S
C122        N123   1.352       .  A
C124       C1000   1.483       .  S
C124        N125   1.364   1_554  A
C124        N129   1.363       .  A
N125        C126   1.363       .  A
C126       C1504   1.476       .  S
C126        N127   1.355       .  A
N127        C128   1.356   1_556  A
C128       C1124   1.479       .  S
C128        N129   1.357       .  A
C130        C944   1.496       .  S
C130        C131   1.413   1_554  A
C130        C135   1.412   1_655  A
C131        C964   1.483       .  S
C131        C132   1.419       .  A
C132        C980   1.496       .  S
C132        C133   1.419   1_655  A
C133        C892   1.484       .  S
C133        C134   1.415       .  A
C134        C908   1.493       .  S
C134        C135   1.414   1_556  A
C135        C928   1.481       .  S
C136       C1522   1.489       .  S
C136        N137   1.364   1_556  A
C136        N141   1.356       .  A
N137        C138   1.368       .  A
C138        C874   1.492       .  S
C138        N139   1.365       .  A
N139        C140   1.362       .  A
C140        C910   1.479       .  S
C140        N141   1.353   1_554  A
C142       C1630   1.473       .  S
C142        N143   1.355       .  A
C142        N147   1.362       .  A
N143        C144   1.355       .  A
C144        C890   1.477       .  S
C144        N145   1.355       .  A
N145        C146   1.361       .  A
C146        C854   1.481       .  S
C146        N147   1.362       .  A
C148       C1252   1.478       .  S
C148        N149   1.356       .  A
C148        N153   1.360   1_655  A
N149        C150   1.351       .  A
C150        C926   1.468       .  S
C150        N151   1.354   1_655  A
N151        C152   1.356       .  A
C152        C836   1.468       .  S
C152        N153   1.363       .  A
C154        C818   1.491       .  S
C154        N155   1.368       .  A
C154        N159   1.357       .  A
N155        C156   1.371       .  A
C156       C1306   1.497       .  S
C156        N157   1.365       .  A
N157        C158   1.361       .  A
C158        C946   1.489       .  S
C158        N159   1.357       .  A
C160        C802   1.494       .  S
C160        N161   1.366   1_455  A
C160        N165   1.362       .  A
N161        C162   1.367       .  A
C162       C1360   1.488       .  S
C162        N163   1.358       .  A
N163        C164   1.358   1_655  A
C164        C982   1.483       .  S
C164        N165   1.358       .  A
C166        C782   1.476       .  S
C166        N167   1.355       .  A
C166        N171   1.364       .  A
N167        C168   1.354   1_554  A
C168        C962   1.471       .  S
C168        N169   1.352       .  A
N169        C170   1.359       .  A
C170       C1414   1.481       .  S
C170        N171   1.364   1_556  A
C172        C764   1.482       .  S
C172        C173   1.416       .  A
C172        C177   1.411       .  A
C173        C746   1.488       .  S
C173        C174   1.420       .  A
C174        C730   1.500       .  S
C174        C175   1.423       .  A
C175        C710   1.478       .  S
C175        C176   1.419       .  A
C176        C674   1.496       .  S
C176        C177   1.407       .  A
C177        C692   1.492       .  S
C178       C1448   1.478       .  S
C178        N179   1.355       .  A
C178        N183   1.360       .  A
N179        C180   1.353       .  A
C180        C766   1.473       .  S
C180        N181   1.359       .  A
N181        C182   1.359       .  A
C182        C656   1.481       .  S
C182        N183   1.364       .  A
C184        C638   1.480       .  S
C184        N185   1.366       .  A
C184        N189   1.356       .  A
N185        C186   1.367       .  A
C186        C676   1.478       .  S
C186        N187   1.359       .  A
N187        C188   1.355       .  A
C188       C1576   1.476       .  S
C188        N189   1.354       .  A
C190       C1288   1.489       .  S
C190        N191   1.368       .  A
C190        N195   1.360       .  A
N191        C192   1.369       .  A
C192        C728   1.482       .  S
C192        N193   1.359       .  A
N193        C194   1.355       .  A
C194        C620   1.483       .  S
C194        N195   1.356       .  A
C196        C602   1.471       .  S
C196        N197   1.362       .  A
C196        N201   1.353       .  A
N197        C198   1.363       .  A
C198       C1340   1.477       .  S
C198        N199   1.360       .  A
N199        C200   1.353       .  A
C200        C712   1.473       .  S
C200        N201   1.354       .  A
C202       C1610   1.481       .  S
C202        N203   1.364       .  A
C202        N207   1.361       .  A
N203        C204   1.361       .  A
C204        C694   1.484       .  S
C204        N205   1.358       .  A
N205        C206   1.355       .  A
C206        C584   1.477       .  S
C206        N207   1.359       .  A
C208       C1468   1.485       .  S
C208        N209   1.360       .  A
C208        N213   1.366       .  A
N209        C210   1.358       .  A
C210        C748   1.476       .  S
C210        N211   1.354       .  A
N211        C212   1.359       .  A
C212        C566   1.486       .  S
C212        N213   1.366       .  A
C214        C514   1.494       .  S
C214        C215   1.417       .  A
C214        C219   1.415   1_455  A
C215        C530   1.483       .  S
C215        C216   1.417       .  A
C216        C550   1.502   1_545  S
C216        C217   1.415       .  A
C217        C458   1.486   1_545  S
C217        C218   1.419   1_455  A
C218        C476   1.489       .  S
C218        C219   1.417       .  A
C219        C496   1.490       .  S
C220        C442   1.493       .  S
C220        N221   1.367       .  A
C220        N225   1.370   1_455  A
N221        C222   1.360       .  A
C222        C512   1.474       .  S
C222        N223   1.349   1_455  A
N223        C224   1.351       .  A
C224       C1378   1.477       .  S
C224        N225   1.365       .  A
C226        C422   1.469       .  S
C226        N227   1.357   1_545  A
C226        N231   1.359       .  A
N227        C228   1.355       .  A
C228       C1540   1.466       .  S
C228        N229   1.356       .  A
N229        C230   1.351       .  A
C230        C532   1.469       .  S
C230        N231   1.358   1_565  A
C232       C1592   1.484       .  S
C232        N233   1.363       .  A
C232        N237   1.362       .  A
N233        C234   1.361       .  A
C234        C406   1.484       .  S
C234        N235   1.361       .  A
N235        C236   1.357       .  A
C236        C548   1.484       .  S
C236        N237   1.361       .  A
C238       C1486   1.486       .  S
C238        N239   1.361       .  A
C238        N243   1.364       .  A
N239        C240   1.361       .  A
C240        C386   1.481       .  S
C240        N241   1.355       .  A
N241        C242   1.359       .  A
C242        C494   1.482       .  S
C242        N243   1.362       .  A
C244       C1216   1.484       .  S
C244        N245   1.368   1_565  A
C244        N249   1.356       .  A
N245        C246   1.370       .  A
C246        C368   1.488       .  S
C246        N247   1.360       .  A
N247        C248   1.358       .  A
C248        C478   1.479       .  S
C248        N249   1.353   1_545  A
C250       C1268   1.484       .  S
C250        N251   1.361       .  A
C250        N255   1.367   1_655  A
N251        C252   1.355       .  A
C252        C460   1.477       .  S
C252        N253   1.355   1_655  A
N253        C254   1.354       .  A
C254        C350   1.478       .  S
C254        N255   1.364       .  A
O256        C264   1.269       .  A
O256       Co276   1.991       .  S
O257        C265   1.253       .  A
O257       Co277   1.998       .  S
O258        C266   1.243       .  A
O258       Co278   1.964       .  S
O259        C267   1.271       .  A
O259       Co279   1.992       .  S
O260        C266   1.258       .  A
O260       Co277   2.028       .  S
O261        C267   1.273       .  A
O261       Co276   2.000       .  S
O262        C265   1.248       .  A
O262       Co279   1.967       .  S
O263        C264   1.271       .  A
O263       Co278   1.989       .  S
C264        C424   1.475       .  S
C265        C586   1.481       .  S
C266        C440   1.481       .  S
C267        C658   1.482       .  S
O268        C281   1.267       .  A
O268       Co276   2.001       .  S
O269        C282   1.286       .  A
O269       Co277   2.036       .  S
O270        C283   1.267       .  A
O270       Co278   1.999       .  S
O271        C284   1.274       .  A
O271       Co279   1.917       .  S
O272        C284   1.289       .  A
O272       Co277   2.049       .  S
O273        C283   1.271       .  A
O273       Co276   2.009       .  S
O274        C281   1.266       .  A
O274       Co279   2.000       .  S
O275        C282   1.274       .  A
O275       Co278   1.942       .  S
Co276       O280   2.089       .  S
Co277       O280   2.258       .  S
Co278       O280   1.951       .  S
Co279       O280   1.958       .  S
C281       C1036   1.491       .  S
C282        C800   1.483       .  S
C283       C1052   1.487       .  S
C284        C856   1.470       .  S
O285        C293   1.266       .  A
O285       Co305   1.983       .  S
O286        C294   1.275       .  A
O286       Co306   2.002       .  S
O287        C295   1.274       .  A
O287       Co307   1.997       .  S
O288        C296   1.268       .  A
O288       Co308   1.894       .  S
O289        C295   1.274       .  A
O289       Co306   2.005       .  S
O290        C296   1.299       .  A
O290       Co305   2.134       .  S
O291        C294   1.276       .  A
O291       Co308   1.998       .  S
O292        C293   1.274       .  A
O292       Co307   2.012       .  S
C293       C1090   1.490       .  S
C294        C622   1.486       .  S
C295        C568   1.488       .  S
C296       C1070   1.478       .  S
O297        C310   1.268       .  A
O297       Co305   1.885       .  S
O298        C311   1.274       .  A
O298       Co306   1.992       .  S
O299        C312   1.276       .  A
O299       Co307   2.010       .  S
O300        C313   1.268       .  A
O300       Co308   1.997       .  S
O301        C313   1.275       .  A
O301       Co306   2.008       .  S
O302        C312   1.277       .  A
O302       Co305   2.000       .  S
O303        C310   1.301       .  A
O303       Co308   2.135       .  S
O304        C311   1.276       .  A
O304       Co307   2.003       .  S
Co305       O309   1.984       .  S
Co306       O309   2.038       .  S
Co307       O309   2.038       .  S
Co308       O309   1.987       .  S
C310        C784   1.476       .  S
C311        C388   1.485       .  S
C312        C370   1.493       .  S
C313        C820   1.496       .  S
O314        C322   1.267       .  A
O314       Co334   1.985       .  S
O315        C323   1.295       .  A
O315       Co335   2.065       .  S
O316        C324   1.260       .  A
O316       Co336   2.017       .  S
O317        C325   1.261       .  A
O317       Co337   1.987       .  S
O318        C324   1.242       .  A
O318       Co335   1.958       .  S
O319        C325   1.267       .  A
O319       Co334   2.016       .  S
O320        C323   1.276       .  A
O320       Co337   1.881       .  S
O321        C322   1.271       .  A
O321       Co336   1.981       .  S
C322        C604   1.471       .  S
C323        C838   1.462       .  S
C324        C640   1.472       .  S
C325        C872   1.490       .  S
O326        C339   1.266       .  A
O326       Co334   1.977       .  S
O327        C340   1.294       .  A
O327       Co335   2.061       .  S
O328        C341   1.273       .  A
O328       Co336   1.992       .  S
O329        C342   1.270       .  A
O329       Co337   2.035       .  S
O330        C342   1.246       .  A
O330       Co335   1.926       .  S
O331        C341   1.270       .  A
O331       Co334   1.998       .  S
O332        C339   1.277       .  A
O332       Co337   2.025       .  S
O333        C340   1.277       .  A
O333       Co336   1.920       .  S
Co334       O338   2.026       .  S
Co335       O338   2.102       .  S
Co336       O338   1.942       .  S
Co337       O338   1.938       .  S
C339        C998   1.475       .  S
C340        C404   1.471       .  S
C341       C1018   1.477       .  S
C342        C352   1.486       .  S
C343        C351   1.486       .  S
C343        C344   1.404       .  A
C343        C348   1.407       .  A
C344        C345   1.395       .  A
C344        H353   1.084       .  S
C345        C346   1.407       .  A
C345        H354   1.082       .  S
C346        C349   1.492       .  S
C346        C347   1.406       .  A
C347        C348   1.406       .  A
C347        H355   1.083       .  S
C348        H356   1.082       .  S
C349        H357   1.086       .  S
C349        C350   1.345       .  D
C350        H358   1.086       .  S
C351        H359   1.088       .  S
C351        C352   1.356       .  D
C352        H360   1.085       .  S
C361        C369   1.494       .  S
C361        C362   1.407       .  A
C361        C366   1.406       .  A
C362        C363   1.410       .  A
C362        H371   1.082       .  S
C363        C364   1.414       .  A
C363        H372   1.081       .  S
C364        C367   1.499       .  S
C364        C365   1.401       .  A
C365        C366   1.397       .  A
C365        H373   1.084       .  S
C366        H374   1.083       .  S
C367        H375   1.087       .  S
C367        C368   1.347       .  D
C368        H376   1.085       .  S
C369        H377   1.087       .  S
C369        C370   1.357       .  D
C370        H378   1.084       .  S
C379        C387   1.486       .  S
C379        C380   1.406       .  A
C379        C384   1.405       .  A
C380        C381   1.405       .  A
C380        H389   1.081       .  S
C381        C382   1.412       .  A
C381        H390   1.082       .  S
C382        C385   1.490       .  S
C382        C383   1.401       .  A
C383        C384   1.394       .  A
C383        H391   1.083       .  S
C384        H392   1.084       .  S
C385        H393   1.086       .  S
C385        C386   1.345       .  D
C386        H394   1.084       .  S
C387        H395   1.088       .  S
C387        C388   1.354       .  D
C388        H396   1.085       .  S
C397        C405   1.492       .  S
C397        C398   1.404       .  A
C397        C402   1.410       .  A
C398        C399   1.397       .  A
C398        H407   1.084       .  S
C399        C400   1.407       .  A
C399        H408   1.082       .  S
C400        C403   1.490       .  S
C400        C401   1.403       .  A
C401        C402   1.403       .  A
C401        H409   1.083       .  S
C402        H410   1.080       .  S
C403        H411   1.088       .  S
C403        C404   1.343       .  D
C404        H412   1.086       .  S
C405        H413   1.087       .  S
C405        C406   1.349       .  D
C406        H414   1.084       .  S
C415        C423   1.477       .  S
C415        C416   1.401       .  A
C415        C420   1.405       .  A
C416        C417   1.390       .  A
C416        H425   1.083       .  S
C417        C418   1.405       .  A
C417        H426   1.082       .  S
C418        C421   1.481       .  S
C418        C419   1.405       .  A
C419        C420   1.401       .  A
C419        H427   1.083       .  S
C420        H428   1.082       .  S
C421        H429   1.087       .  S
C421        C422   1.344       .  D
C422        H430   1.085       .  S
C423        H431   1.088       .  S
C423        C424   1.346       .  D
C424        H432   1.085       .  S
C433        C441   1.501       .  S
C433        C434   1.405       .  A
C433        C438   1.410       .  A
C434        C435   1.400       .  A
C434        H443   1.084       .  S
C435        C436   1.411       .  A
C435        H444   1.078       .  S
C436        C439   1.506       .  S
C436        C437   1.408       .  A
C437        C438   1.407       .  A
C437        H445   1.083       .  S
C438        H446   1.080       .  S
C439        H447   1.088       .  S
C439        C440   1.351       .  D
C440        H448   1.082       .  S
C441        H449   1.087       .  S
C441        C442   1.353       .  D
C442        H450   1.083       .  S
C451        C459   1.483       .  S
C451        C452   1.403       .  A
C451        C456   1.408   1_455  A
C452        C453   1.394       .  A
C452        H461   1.084       .  S
C453        C454   1.405       .  A
C453        H462   1.082       .  S
C454        C457   1.480       .  S
C454        C455   1.403   1_455  A
C455        C456   1.399       .  A
C455        H463   1.084       .  S
C456        H464   1.081       .  S
C457        H465   1.086   1_455  S
C457        C458   1.345       .  D
C458        H466   1.085       .  S
C459        H467   1.087       .  S
C459        C460   1.347   1_455  D
C460        H468   1.084       .  S
C469        C477   1.488       .  S
C469        C470   1.403       .  A
C469        C474   1.409       .  A
C470        C471   1.398       .  A
C470        H479   1.083       .  S
C471        C472   1.407       .  A
C471        H480   1.082       .  S
C472        C475   1.485       .  S
C472        C473   1.402       .  A
C473        C474   1.400       .  A
C473        H481   1.083   1_545  S
C474        H482   1.082   1_545  S
C475        H483   1.087       .  S
C475        C476   1.345       .  D
C476        H484   1.085       .  S
C477        H485   1.087       .  S
C477        C478   1.346       .  D
C478        H486   1.085   1_545  S
C487        C495   1.481       .  S
C487        C488   1.403       .  A
C487        C492   1.405       .  A
C488        C489   1.403       .  A
C488        H497   1.083       .  S
C489        C490   1.407       .  A
C489        H498   1.082       .  S
C490        C493   1.482       .  S
C490        C491   1.403       .  A
C491        C492   1.397       .  A
C491        H499   1.084       .  S
C492        H500   1.083       .  S
C493        H501   1.087       .  S
C493        C494   1.347       .  D
C494        H502   1.086       .  S
C495        H503   1.085       .  S
C495        C496   1.343       .  D
C496        H504   1.086       .  S
C505        C513   1.487       .  S
C505        C506   1.402       .  A
C505        C510   1.409       .  A
C506        C507   1.398       .  A
C506        H515   1.084       .  S
C507        C508   1.409       .  A
C507        H516   1.082       .  S
C508        C511   1.489       .  S
C508        C509   1.403       .  A
C509        C510   1.400       .  A
C509        H517   1.083       .  S
C510        H518   1.081       .  S
C511        H519   1.087       .  S
C511        C512   1.343       .  D
C512        H520   1.086   1_455  S
C513        H521   1.087       .  S
C513        C514   1.346       .  D
C514        H522   1.082       .  S
C523        C531   1.483       .  S
C523        C524   1.402       .  A
C523        C528   1.409   1_545  A
C524        C525   1.395       .  A
C524        H533   1.084       .  S
C525        C526   1.406       .  A
C525        H534   1.081       .  S
C526        C529   1.478       .  S
C526        C527   1.400   1_545  A
C527        C528   1.394       .  A
C527        H535   1.084       .  S
C528        H536   1.080       .  S
C529        H537   1.088   1_545  S
C529        C530   1.342       .  D
C530        H538   1.084       .  S
C531        H539   1.087       .  S
C531        C532   1.342   1_545  D
C532        H540   1.083       .  S
C541        C549   1.493       .  S
C541        C542   1.405       .  A
C541        C546   1.409       .  A
C542        C543   1.404       .  A
C542        H551   1.084       .  S
C543        C544   1.408       .  A
C543        H552   1.082       .  S
C544        C547   1.491       .  S
C544        C545   1.403       .  A
C545        C546   1.401       .  A
C545        H553   1.084       .  S
C546        H554   1.080       .  S
C547        H555   1.088       .  S
C547        C548   1.346       .  D
C548        H556   1.087       .  S
C549        H557   1.087       .  S
C549        C550   1.349       .  D
C550        H558   1.086       .  S
C559        C567   1.488       .  S
C559        C560   1.406       .  A
C559        C564   1.404       .  A
C560        C561   1.398       .  A
C560        H569   1.083       .  S
C561        C562   1.405       .  A
C561        H570   1.081       .  S
C562        C565   1.495       .  S
C562        C563   1.410       .  A
C563        C564   1.405       .  A
C563        H571   1.083       .  S
C564        H572   1.082       .  S
C565        H573   1.086       .  S
C565        C566   1.355       .  D
C566        H574   1.083       .  S
C567        H575   1.087       .  S
C567        C568   1.355       .  D
C568        H576   1.085       .  S
C577        C585   1.490       .  S
C577        C578   1.403       .  A
C577        C582   1.410       .  A
C578        C579   1.395       .  A
C578        H587   1.084       .  S
C579        C580   1.407       .  A
C579        H588   1.081       .  S
C580        C583   1.491       .  S
C580        C581   1.405       .  A
C581        C582   1.404       .  A
C581        H589   1.083       .  S
C582        H590   1.080       .  S
C583        H591   1.087       .  S
C583        C584   1.347       .  D
C584        H592   1.085       .  S
C585        H593   1.088       .  S
C585        C586   1.349       .  D
C586        H594   1.084       .  S
C595        C603   1.475       .  S
C595        C596   1.398       .  A
C595        C600   1.408       .  A
C596        C597   1.391       .  A
C596        H605   1.083       .  S
C597        C598   1.407       .  A
C597        H606   1.083       .  S
C598        C601   1.484       .  S
C598        C599   1.404       .  A
C599        C600   1.401       .  A
C599        H607   1.083       .  S
C600        H608   1.082       .  S
C601        H609   1.086       .  S
C601        C602   1.342       .  D
C602        H610   1.086       .  S
C603        H611   1.087       .  S
C603        C604   1.342       .  D
C604        H612   1.086       .  S
C613        C621   1.487       .  S
C613        C614   1.404       .  A
C613        C618   1.405       .  A
C614        C615   1.395       .  A
C614        H623   1.084       .  S
C615        C616   1.408       .  A
C615        H624   1.079       .  S
C616        C619   1.500       .  S
C616        C617   1.411       .  A
C617        C618   1.406       .  A
C617        H625   1.083       .  S
C618        H626   1.082       .  S
C619        H627   1.088       .  S
C619        C620   1.353       .  D
C620        H628   1.082       .  S
C621        H629   1.089       .  S
C621        C622   1.354       .  D
C622        H630   1.085       .  S
C631        C639   1.491       .  S
C631        C632   1.405       .  A
C631        C636   1.406       .  A
C632        C633   1.401       .  A
C632        H641   1.083       .  S
C633        C634   1.412       .  A
C633        H642   1.081       .  S
C634        C637   1.494       .  S
C634        C635   1.402       .  A
C635        C636   1.398       .  A
C635        H643   1.083       .  S
C636        H644   1.081       .  S
C637        H645   1.087       .  S
C637        C638   1.344       .  D
C638        H646   1.085       .  S
C639        H647   1.088       .  S
C639        C640   1.353       .  D
C640        H648   1.083       .  S
C649        C657   1.483       .  S
C649        C650   1.406       .  A
C649        C654   1.404       .  A
C650        C651   1.405       .  A
C650        H659   1.082       .  S
C651        C652   1.411       .  A
C651        H660   1.082       .  S
C652        C655   1.486       .  S
C652        C653   1.400       .  A
C653        C654   1.393       .  A
C653        H661   1.084       .  S
C654        H662   1.083       .  S
C655        H663   1.087       .  S
C655        C656   1.345       .  D
C656        H664   1.086       .  S
C657        H665   1.088       .  S
C657        C658   1.351       .  D
C658        H666   1.085       .  S
C667        C675   1.490       .  S
C667        C668   1.403       .  A
C667        C672   1.407       .  A
C668        C669   1.402       .  A
C668        H677   1.083       .  S
C669        C670   1.410       .  A
C669        H678   1.081       .  S
C670        C673   1.489       .  S
C670        C671   1.403       .  A
C671        C672   1.398       .  A
C671        H679   1.083       .  S
C672        H680   1.083       .  S
C673        H681   1.086       .  S
C673        C674   1.346       .  D
C674        H682   1.084       .  S
C675        H683   1.086       .  S
C675        C676   1.345       .  D
C676        H684   1.086       .  S
C685        C693   1.493       .  S
C685        C686   1.406       .  A
C685        C690   1.408       .  A
C686        C687   1.398       .  A
C686        H695   1.084       .  S
C687        C688   1.402       .  A
C687        H696   1.083       .  S
C688        C691   1.492       .  S
C688        C689   1.410       .  A
C689        C690   1.402       .  A
C689        H697   1.081       .  S
C690        H698   1.079       .  S
C691        H699   1.086       .  S
C691        C692   1.345       .  D
C692        H700   1.083       .  S
C693        H701   1.087       .  S
C693        C694   1.352       .  D
C694        H702   1.084       .  S
C703        C711   1.480       .  S
C703        C704   1.401       .  A
C703        C708   1.409       .  A
C704        C705   1.391       .  A
C704        H713   1.084       .  S
C705        C706   1.406       .  A
C705        H714   1.082       .  S
C706        C709   1.477       .  S
C706        C707   1.401       .  A
C707        C708   1.398       .  A
C707        H715   1.084       .  S
C708        H716   1.080       .  S
C709        H717   1.087       .  S
C709        C710   1.341       .  D
C710        H718   1.086       .  S
C711        H719   1.087       .  S
C711        C712   1.344       .  D
C712        H720   1.084       .  S
C721        C729   1.498       .  S
C721        C722   1.405       .  A
C721        C726   1.412       .  A
C722        C723   1.400       .  A
C722        H731   1.083       .  S
C723        C724   1.408       .  A
C723        H732   1.082       .  S
C724        C727   1.495       .  S
C724        C725   1.404       .  A
C725        C726   1.404       .  A
C725        H733   1.083       .  S
C726        H734   1.080       .  S
C727        H735   1.087       .  S
C727        C728   1.346       .  D
C728        H736   1.086       .  S
C729        H737   1.087       .  S
C729        C730   1.349       .  D
C730        H738   1.079       .  S
C739        C747   1.483       .  S
C739        C740   1.403       .  A
C739        C744   1.408       .  A
C740        C741   1.399       .  A
C740        H749   1.084       .  S
C741        C742   1.404       .  A
C741        H750   1.082       .  S
C742        C745   1.475       .  S
C742        C743   1.400       .  A
C743        C744   1.399       .  A
C743        H751   1.084       .  S
C744        H752   1.082       .  S
C745        H753   1.085       .  S
C745        C746   1.341       .  D
C746        H754   1.087       .  S
C747        H755   1.087       .  S
C747        C748   1.344       .  D
C748        H756   1.087       .  S
C757        C765   1.489       .  S
C757        C758   1.403       .  A
C757        C762   1.411       .  A
C758        C759   1.396       .  A
C758        H767   1.083       .  S
C759        C760   1.407       .  A
C759        H768   1.081       .  S
C760        C763   1.482       .  S
C760        C761   1.400       .  A
C761        C762   1.397       .  A
C761        H769   1.083       .  S
C762        H770   1.079       .  S
C763        H771   1.087       .  S
C763        C764   1.341       .  D
C764        H772   1.084       .  S
C765        H773   1.086       .  S
C765        C766   1.344       .  D
C766        H774   1.081       .  S
C775        C783   1.485       .  S
C775        C776   1.402       .  A
C775        C780   1.409       .  A
C776        C777   1.397       .  A
C776        H785   1.084       .  S
C777        C778   1.409       .  A
C777        H786   1.082       .  S
C778        C781   1.489       .  S
C778        C779   1.403       .  A
C779        C780   1.401       .  A
C779        H787   1.083       .  S
C780        H788   1.082       .  S
C781        H789   1.087       .  S
C781        C782   1.343       .  D
C782        H790   1.086       .  S
C783        H791   1.087       .  S
C783        C784   1.346       .  D
C784        H792   1.085       .  S
C793        C801   1.500       .  S
C793        C794   1.406       .  A
C793        C798   1.410       .  A
C794        C795   1.400       .  A
C794        H803   1.084       .  S
C795        C796   1.409       .  A
C795        H804   1.080       .  S
C796        C799   1.502       .  S
C796        C797   1.408       .  A
C797        C798   1.408       .  A
C797        H805   1.084       .  S
C798        H806   1.080       .  S
C799        H807   1.088       .  S
C799        C800   1.351       .  D
C800        H808   1.084       .  S
C801        H809   1.087       .  S
C801        C802   1.355       .  D
C802        H810   1.084       .  S
C811        C819   1.498       .  S
C811        C812   1.406       .  A
C811        C816   1.409       .  A
C812        C813   1.401       .  A
C812        H821   1.084       .  S
C813        C814   1.408       .  A
C813        H822   1.082       .  S
C814        C817   1.505       .  S
C814        C815   1.410       .  A
C815        C816   1.411       .  A
C815        H823   1.083       .  S
C816        H824   1.082       .  S
C817        H825   1.086       .  S
C817        C818   1.351       .  D
C818        H826   1.086       .  S
C819        H827   1.087       .  S
C819        C820   1.357       .  D
C820        H828   1.085       .  S
C829        C837   1.473       .  S
C829        C830   1.398       .  A
C829        C834   1.408       .  A
C830        C831   1.391       .  A
C830        H839   1.084       .  S
C831        C832   1.407       .  A
C831        H840   1.082       .  S
C832        C835   1.478       .  S
C832        C833   1.400       .  A
C833        C834   1.396       .  A
C833        H841   1.083       .  S
C834        H842   1.081       .  S
C835        H843   1.087       .  S
C835        C836   1.340       .  D
C836        H844   1.086       .  S
C837        H845   1.088       .  S
C837        C838   1.338       .  D
C838        H846   1.085       .  S
C847        C855   1.484       .  S
C847        C848   1.404       .  A
C847        C852   1.404       .  A
C848        C849   1.400       .  A
C848        H857   1.081       .  S
C849        C850   1.408       .  A
C849        H858   1.082       .  S
C850        C853   1.487       .  S
C850        C851   1.405       .  A
C851        C852   1.396       .  A
C851        H859   1.082       .  S
C852        H860   1.083       .  S
C853        H861   1.085       .  S
C853        C854   1.349       .  D
C854        H862   1.082       .  S
C855        H863   1.087       .  S
C855        C856   1.346       .  D
C856        H864   1.084       .  S
C865        C873   1.500       .  S
C865        C866   1.411       .  A
C865        C870   1.405       .  A
C866        C867   1.408       .  A
C866        H875   1.082       .  S
C867        C868   1.411       .  A
C867        H876   1.081       .  S
C868        C871   1.500       .  S
C868        C869   1.405       .  A
C869        C870   1.401       .  A
C869        H877   1.084       .  S
C870        H878   1.083       .  S
C871        H879   1.088       .  S
C871        C872   1.354       .  D
C872        H880   1.085       .  S
C873        H881   1.086       .  S
C873        C874   1.351       .  D
C874        H882   1.084       .  S
C883        C891   1.484       .  S
C883        C884   1.403       .  A
C883        C888   1.406       .  A
C884        C885   1.398       .  A
C884        H893   1.083       .  S
C885        C886   1.408       .  A
C885        H894   1.081       .  S
C886        C889   1.486       .  S
C886        C887   1.404       .  A
C887        C888   1.397       .  A
C887        H895   1.083       .  S
C888        H896   1.082       .  S
C889        H897   1.086       .  S
C889        C890   1.347       .  D
C890        H898   1.083       .  S
C891        H899   1.087       .  S
C891        C892   1.343       .  D
C892        H900   1.085       .  S
C901        C909   1.491       .  S
C901        C902   1.404       .  A
C901        C906   1.408       .  A
C902        C903   1.402       .  A
C902        H911   1.083       .  S
C903        C904   1.408       .  A
C903        H912   1.083       .  S
C904        C907   1.486   1_554  S
C904        C905   1.402   1_554  A
C905        C906   1.399   1_556  A
C905        H913   1.083       .  S
C906        H914   1.083   1_554  S
C907        H915   1.087       .  S
C907        C908   1.346       .  D
C908        H916   1.084       .  S
C909        H917   1.086       .  S
C909        C910   1.345       .  D
C910        H918   1.086   1_554  S
C919        C927   1.475       .  S
C919        C920   1.398       .  A
C919        C924   1.406   1_655  A
C920        C921   1.393       .  A
C920        H929   1.084       .  S
C921        C922   1.410   1_655  A
C921        H930   1.079       .  S
C922        C925   1.486       .  S
C922        C923   1.404       .  A
C923        C924   1.396       .  A
C923        H931   1.084       .  S
C924        H932   1.082       .  S
C925        H933   1.089       .  S
C925        C926   1.343   1_455  D
C926        H934   1.084       .  S
C927        H935   1.087       .  S
C927        C928   1.340   1_655  D
C928        H936   1.085       .  S
C937        C945   1.495       .  S
C937        C938   1.406       .  A
C937        C942   1.408       .  A
C938        C939   1.401       .  A
C938        H947   1.084       .  S
C939        C940   1.406       .  A
C939        H948   1.081       .  S
C940        C943   1.493       .  S
C940        C941   1.406       .  A
C941        C942   1.404       .  A
C941        H949   1.084       .  S
C942        H950   1.081       .  S
C943        H951   1.087       .  S
C943        C944   1.348       .  D
C944        H952   1.085       .  S
C945        H953   1.087       .  S
C945        C946   1.353       .  D
C946        H954   1.085       .  S
C955        C963   1.475       .  S
C955        C956   1.401       .  A
C955        C960   1.406   1_556  A
C956        C957   1.398       .  A
C956        H965   1.083       .  S
C957        C958   1.407   1_556  A
C957        H966   1.083       .  S
C958        C961   1.476       .  S
C958        C959   1.400       .  A
C959        C960   1.394       .  A
C959        H967   1.083       .  S
C960        H968   1.083       .  S
C961        H969   1.087       .  S
C961        C962   1.342   1_554  D
C962        H970   1.086       .  S
C963        H971   1.086       .  S
C963        C964   1.342       .  D
C964        H972   1.085       .  S
C973        C981   1.493       .  S
C973        C974   1.406       .  A
C973        C978   1.409   1_655  A
C974        C975   1.400       .  A
C974        H983   1.084       .  S
C975        C976   1.407   1_655  A
C975        H984   1.081       .  S
C976        C979   1.487       .  S
C976        C977   1.404       .  A
C977        C978   1.400       .  A
C977        H985   1.084       .  S
C978        H986   1.080       .  S
C979        H987   1.086       .  S
C979        C980   1.348   1_455  D
C980        H988   1.085       .  S
C981        H989   1.087       .  S
C981        C982   1.349   1_655  D
C982        H990   1.085       .  S
C991        C999   1.489       .  S
C991        C992   1.405       .  A
C991        C996   1.407       .  A
C992        C993   1.399       .  A
C992       H1001   1.084       .  S
C993        C994   1.407       .  A
C993       H1002   1.082       .  S
C994        C997   1.491       .  S
C994        C995   1.405       .  A
C995        C996   1.402       .  A
C995       H1003   1.083       .  S
C996       H1004   1.081       .  S
C997       H1005   1.088       .  S
C997        C998   1.347       .  D
C998       H1006   1.085       .  S
C999       H1007   1.088       .  S
C999       C1000   1.349       .  D
C1000      H1008   1.086       .  S
C1009      C1017   1.496       .  S
C1009      C1010   1.407       .  A
C1009      C1014   1.409       .  A
C1010      C1011   1.402       .  A
C1010      H1019   1.080       .  S
C1011      C1012   1.411       .  A
C1011      H1020   1.082       .  S
C1012      C1015   1.495       .  S
C1012      C1013   1.402       .  A
C1013      C1014   1.401       .  A
C1013      H1021   1.083       .  S
C1014      H1022   1.084       .  S
C1015      H1023   1.087       .  S
C1015      C1016   1.345       .  D
C1016      H1024   1.086       .  S
C1017      H1025   1.089       .  S
C1017      C1018   1.354       .  D
C1018      H1026   1.083       .  S
C1027      C1035   1.493       .  S
C1027      C1028   1.405       .  A
C1027      C1032   1.407       .  A
C1028      C1029   1.407       .  A
C1028      H1037   1.082       .  S
C1029      C1030   1.416       .  A
C1029      H1038   1.080       .  S
C1030      C1033   1.498       .  S
C1030      C1031   1.400       .  A
C1031      C1032   1.397       .  A
C1031      H1039   1.084       .  S
C1032      H1040   1.082       .  S
C1033      H1041   1.087       .  S
C1033      C1034   1.343       .  D
C1034      H1042   1.085       .  S
C1035      H1043   1.087       .  S
C1035      C1036   1.357       .  D
C1036      H1044   1.084       .  S
C1045      C1053   1.492       .  S
C1045      C1046   1.401       .  A
C1045      C1050   1.412       .  A
C1046      C1047   1.395       .  A
C1046      H1055   1.084       .  S
C1047      C1048   1.404       .  A
C1047      H1056   1.083       .  S
C1048      C1051   1.487       .  S
C1048      C1049   1.406       .  A
C1049      C1050   1.407       .  A
C1049      H1057   1.083       .  S
C1050      H1058   1.081       .  S
C1051      H1059   1.087       .  S
C1051      C1052   1.353       .  D
C1052      H1060   1.085       .  S
C1053      H1061   1.087       .  S
C1053      C1054   1.346       .  D
C1054      H1062   1.085       .  S
C1063      C1071   1.488       .  S
C1063      C1064   1.406       .  A
C1063      C1068   1.406       .  A
C1064      C1065   1.402       .  A
C1064      H1073   1.083       .  S
C1065      C1066   1.404       .  A
C1065      H1074   1.083       .  S
C1066      C1069   1.485       .  S
C1066      C1067   1.405       .  A
C1067      C1068   1.401       .  A
C1067      H1075   1.084       .  S
C1068      H1076   1.082       .  S
C1069      H1077   1.088       .  S
C1069      C1070   1.348       .  D
C1070      H1078   1.086       .  S
C1071      H1079   1.087       .  S
C1071      C1072   1.349       .  D
C1072      H1080   1.086       .  S
C1081      C1089   1.490       .  S
C1081      C1082   1.406       .  A
C1081      C1086   1.404       .  A
C1082      C1083   1.397       .  A
C1082      H1091   1.083       .  S
C1083      C1084   1.406       .  A
C1083      H1092   1.080       .  S
C1084      C1087   1.497       .  S
C1084      C1085   1.411       .  A
C1085      C1086   1.406       .  A
C1085      H1093   1.083       .  S
C1086      H1094   1.082       .  S
C1087      H1095   1.087       .  S
C1087      C1088   1.354       .  D
C1088      H1096   1.083       .  S
C1089      H1097   1.087       .  S
C1089      C1090   1.357       .  D
C1090      H1098   1.084       .  S
C1099      C1107   1.482       .  S
C1099      C1100   1.403   1_565  A
C1099      C1104   1.406       .  A
C1100      C1101   1.399       .  A
C1100      H1109   1.083       .  S
C1101      C1102   1.406   1_545  A
C1101      H1110   1.083       .  S
C1102      C1105   1.481       .  S
C1102      C1103   1.402       .  A
C1103      C1104   1.400       .  A
C1103      H1111   1.083       .  S
C1104      H1112   1.083       .  S
C1105      H1113   1.086       .  S
C1105      C1106   1.343       .  D
C1106      H1114   1.086       .  S
C1107      H1115   1.087   1_565  S
C1107      C1108   1.344       .  D
C1108      H1116   1.087       .  S
C1117      C1125   1.482       .  S
C1117      C1118   1.403       .  A
C1117      C1122   1.405   1_554  A
C1118      C1119   1.402       .  A
C1118      H1127   1.084       .  S
C1119      C1120   1.408   1_554  A
C1119      H1128   1.082       .  S
C1120      C1123   1.482       .  S
C1120      C1121   1.402       .  A
C1121      C1122   1.396       .  A
C1121      H1129   1.084       .  S
C1122      H1130   1.083       .  S
C1123      H1131   1.088       .  S
C1123      C1124   1.346   1_556  D
C1124      H1132   1.086       .  S
C1125      H1133   1.086       .  S
C1125      C1126   1.343       .  D
C1126      H1134   1.084       .  S
C1135      C1143   1.489       .  S
C1135      C1136   1.404       .  A
C1135      C1140   1.408   1_554  A
C1136      C1137   1.402       .  A
C1136      H1145   1.083       .  S
C1137      C1138   1.409       .  A
C1137      H1146   1.080       .  S
C1138      C1141   1.490       .  S
C1138      C1139   1.404   1_554  A
C1139      C1140   1.395       .  A
C1139      H1147   1.083       .  S
C1140      H1148   1.081       .  S
C1141      H1149   1.087   1_554  S
C1141      C1142   1.348       .  D
C1142      H1150   1.083       .  S
C1143      H1151   1.086       .  S
C1143      C1144   1.346   1_554  D
C1144      H1152   1.083       .  S
C1153      C1161   1.480       .  S
C1153      C1154   1.401       .  A
C1153      C1158   1.407       .  A
C1154      C1155   1.396       .  A
C1154      H1163   1.083       .  S
C1155      C1156   1.408       .  A
C1155      H1164   1.083       .  S
C1156      C1159   1.485       .  S
C1156      C1157   1.403       .  A
C1157      C1158   1.399       .  A
C1157      H1165   1.083       .  S
C1158      H1166   1.083       .  S
C1159      H1167   1.086       .  S
C1159      C1160   1.344       .  D
C1160      H1168   1.085       .  S
C1161      H1169   1.087       .  S
C1161      C1162   1.343       .  D
C1162      H1170   1.085       .  S
C1171      C1179   1.493       .  S
C1171      C1172   1.402       .  A
C1171      C1176   1.412       .  A
C1172      C1173   1.399       .  A
C1172      H1181   1.084       .  S
C1173      C1174   1.409       .  A
C1173      H1182   1.080       .  S
C1174      C1177   1.488       .  S
C1174      C1175   1.401       .  A
C1175      C1176   1.399       .  A
C1175      H1183   1.084       .  S
C1176      H1184   1.080       .  S
C1177      H1185   1.087       .  S
C1177      C1178   1.342       .  D
C1178      H1186   1.085       .  S
C1179      H1187   1.087       .  S
C1179      C1180   1.344       .  D
C1180      H1188   1.084       .  S
C1189      C1197   1.477       .  S
C1189      C1190   1.402       .  A
C1189      C1194   1.405   1_565  A
C1190      C1191   1.397       .  A
C1190      H1199   1.083       .  S
C1191      C1192   1.405       .  A
C1191      H1200   1.082       .  S
C1192      C1195   1.476       .  S
C1192      C1193   1.402   1_565  A
C1193      C1194   1.398       .  A
C1193      H1201   1.084       .  S
C1194      H1202   1.083       .  S
C1195      H1203   1.086       .  S
C1195      C1196   1.343       .  D
C1196      H1204   1.087       .  S
C1197      H1205   1.087       .  S
C1197      C1198   1.344   1_565  D
C1198      H1206   1.086       .  S
C1207      C1215   1.496       .  S
C1207      C1208   1.402       .  A
C1207      C1212   1.412       .  A
C1208      C1209   1.400       .  A
C1208      H1217   1.084       .  S
C1209      C1210   1.407       .  A
C1209      H1218   1.083       .  S
C1210      C1213   1.494       .  S
C1210      C1211   1.407       .  A
C1211      C1212   1.405       .  A
C1211      H1219   1.082       .  S
C1212      H1220   1.082       .  S
C1213      H1221   1.086       .  S
C1213      C1214   1.355       .  D
C1214      H1222   1.084       .  S
C1215      H1223   1.087       .  S
C1215      C1216   1.345       .  D
C1216      H1224   1.086       .  S
C1225      C1233   1.484       .  S
C1225      C1226   1.405       .  A
C1225      C1230   1.405       .  A
C1226      C1227   1.407       .  A
C1226      H1235   1.081       .  S
C1227      C1228   1.413       .  A
C1227      H1236   1.082       .  S
C1228      C1231   1.491       .  S
C1228      C1229   1.400       .  A
C1229      C1230   1.393       .  A
C1229      H1237   1.083       .  S
C1230      H1238   1.084       .  S
C1231      H1239   1.086       .  S
C1231      C1232   1.344       .  D
C1232      H1240   1.084       .  S
C1233      H1241   1.089       .  S
C1233      C1234   1.354       .  D
C1234      H1242   1.086       .  S
C1243      C1251   1.481       .  S
C1243      C1244   1.403       .  A
C1243      C1248   1.406       .  A
C1244      C1245   1.394       .  A
C1244      H1253   1.084       .  S
C1245      C1246   1.405       .  A
C1245      H1254   1.081       .  S
C1246      C1249   1.483       .  S
C1246      C1247   1.405       .  A
C1247      C1248   1.399       .  A
C1247      H1255   1.084       .  S
C1248      H1256   1.081       .  S
C1249      H1257   1.088       .  S
C1249      C1250   1.347       .  D
C1250      H1258   1.085       .  S
C1251      H1259   1.087       .  S
C1251      C1252   1.348       .  D
C1252      H1260   1.084       .  S
C1261      C1269   1.489       .  S
C1261      C1262   1.406       .  A
C1261      C1266   1.405       .  A
C1262      C1263   1.396       .  A
C1262      H1271   1.084       .  S
C1263      C1264   1.405       .  A
C1263      H1272   1.080       .  S
C1264      C1267   1.495       .  S
C1264      C1265   1.410       .  A
C1265      C1266   1.406       .  A
C1265      H1273   1.083       .  S
C1266      H1274   1.081       .  S
C1267      H1275   1.086       .  S
C1267      C1268   1.354       .  D
C1268      H1276   1.082       .  S
C1269      H1277   1.088       .  S
C1269      C1270   1.356       .  D
C1270      H1278   1.084       .  S
C1279      C1287   1.504       .  S
C1279      C1280   1.406       .  A
C1279      C1284   1.412       .  A
C1280      C1281   1.405       .  A
C1280      H1289   1.084       .  S
C1281      C1282   1.412       .  A
C1281      H1290   1.080       .  S
C1282      C1285   1.503       .  S
C1282      C1283   1.404       .  A
C1283      C1284   1.403       .  A
C1283      H1291   1.084       .  S
C1284      H1292   1.080       .  S
C1285      H1293   1.087       .  S
C1285      C1286   1.348       .  D
C1286      H1294   1.084       .  S
C1287      H1295   1.087       .  S
C1287      C1288   1.350       .  D
C1288      H1296   1.084       .  S
C1297      C1305   1.505       .  S
C1297      C1298   1.406       .  A
C1297      C1302   1.412       .  A
C1298      C1299   1.403       .  A
C1298      H1307   1.082       .  S
C1299      C1300   1.409       .  A
C1299      H1308   1.083       .  S
C1300      C1303   1.499       .  S
C1300      C1301   1.406       .  A
C1301      C1302   1.411       .  A
C1301      H1309   1.083       .  S
C1302      H1310   1.083       .  S
C1303      H1311   1.087       .  S
C1303      C1304   1.360       .  D
C1304      H1312   1.085       .  S
C1305      H1313   1.087       .  S
C1305      C1306   1.358       .  D
C1306      H1314   1.085       .  S
C1315      C1323   1.494       .  S
C1315      C1316   1.406       .  A
C1315      C1320   1.407       .  A
C1316      C1317   1.402       .  A
C1316      H1325   1.083       .  S
C1317      C1318   1.408       .  A
C1317      H1326   1.081       .  S
C1318      C1321   1.496       .  S
C1318      C1319   1.407       .  A
C1319      C1320   1.404       .  A
C1319      H1327   1.083       .  S
C1320      H1328   1.082       .  S
C1321      H1329   1.087       .  S
C1321      C1322   1.352       .  D
C1322      H1330   1.085       .  S
C1323      H1331   1.087       .  S
C1323      C1324   1.352       .  D
C1324      H1332   1.084       .  S
C1333      C1341   1.479       .  S
C1333      C1334   1.403       .  A
C1333      C1338   1.404       .  A
C1334      C1335   1.395       .  A
C1334      H1343   1.084       .  S
C1335      C1336   1.407       .  A
C1335      H1344   1.080       .  S
C1336      C1339   1.488       .  S
C1336      C1337   1.407       .  A
C1337      C1338   1.399       .  A
C1337      H1345   1.083       .  S
C1338      H1346   1.082       .  S
C1339      H1347   1.087       .  S
C1339      C1340   1.350       .  D
C1340      H1348   1.083       .  S
C1341      H1349   1.089       .  S
C1341      C1342   1.346       .  D
C1342      H1350   1.085       .  S
C1351      C1359   1.497       .  S
C1351      C1352   1.401       .  A
C1351      C1356   1.414       .  A
C1352      C1353   1.396       .  A
C1352      H1361   1.083       .  S
C1353      C1354   1.406       .  A
C1353      H1362   1.084       .  S
C1354      C1357   1.490       .  S
C1354      C1355   1.406       .  A
C1355      C1356   1.410       .  A
C1355      H1363   1.082       .  S
C1356      H1364   1.081       .  S
C1357      H1365   1.088       .  S
C1357      C1358   1.357       .  D
C1358      H1366   1.085       .  S
C1359      H1367   1.087       .  S
C1359      C1360   1.346       .  D
C1360      H1368   1.085       .  S
C1369      C1377   1.492       .  S
C1369      C1370   1.406       .  A
C1369      C1374   1.406       .  A
C1370      C1371   1.408       .  A
C1370      H1379   1.084       .  S
C1371      C1372   1.409       .  A
C1371      H1380   1.082       .  S
C1372      C1375   1.485       .  S
C1372      C1373   1.401       .  A
C1373      C1374   1.394       .  A
C1373      H1381   1.084       .  S
C1374      H1382   1.082       .  S
C1375      H1383   1.089       .  S
C1375      C1376   1.350       .  D
C1376      H1384   1.086       .  S
C1377      H1385   1.086       .  S
C1377      C1378   1.343       .  D
C1378      H1386   1.088       .  S
C1387      C1395   1.489       .  S
C1387      C1388   1.404       .  A
C1387      C1392   1.407       .  A
C1388      C1389   1.403       .  A
C1388      H1397   1.083       .  S
C1389      C1390   1.408       .  A
C1389      H1398   1.082       .  S
C1390      C1393   1.485       .  S
C1390      C1391   1.403       .  A
C1391      C1392   1.398       .  A
C1391      H1399   1.084       .  S
C1392      H1400   1.082       .  S
C1393      H1401   1.088       .  S
C1393      C1394   1.349       .  D
C1394      H1402   1.086       .  S
C1395      H1403   1.087       .  S
C1395      C1396   1.344       .  D
C1396      H1404   1.087       .  S
C1405      C1413   1.488       .  S
C1405      C1406   1.407       .  A
C1405      C1410   1.406       .  A
C1406      C1407   1.400       .  A
C1406      H1415   1.084       .  S
C1407      C1408   1.404       .  A
C1407      H1416   1.081       .  S
C1408      C1411   1.485       .  S
C1408      C1409   1.406       .  A
C1409      C1410   1.397       .  A
C1409      H1417   1.084       .  S
C1410      H1418   1.080       .  S
C1411      H1419   1.088       .  S
C1411      C1412   1.351       .  D
C1412      H1420   1.085       .  S
C1413      H1421   1.087       .  S
C1413      C1414   1.351       .  D
C1414      H1422   1.084       .  S
C1423      C1431   1.493       .  S
C1423      C1424   1.406       .  A
C1423      C1428   1.406       .  A
C1424      C1425   1.409       .  A
C1424      H1433   1.082       .  S
C1425      C1426   1.415       .  A
C1425      H1434   1.081       .  S
C1426      C1429   1.500       .  S
C1426      C1427   1.402       .  A
C1427      C1428   1.398       .  A
C1427      H1435   1.083       .  S
C1428      H1436   1.084       .  S
C1429      H1437   1.087       .  S
C1429      C1430   1.346       .  D
C1430      H1438   1.084       .  S
C1431      H1439   1.088       .  S
C1431      C1432   1.356       .  D
C1432      H1440   1.085       .  S
C1441      C1449   1.484       .  S
C1441      C1442   1.405       .  A
C1441      C1446   1.405       .  A
C1442      C1443   1.394       .  A
C1442      H1451   1.084       .  S
C1443      C1444   1.404       .  A
C1443      H1452   1.081       .  S
C1444      C1447   1.485       .  S
C1444      C1445   1.407       .  A
C1445      C1446   1.402       .  A
C1445      H1453   1.083       .  S
C1446      H1454   1.081       .  S
C1447      H1455   1.087       .  S
C1447      C1448   1.350       .  D
C1448      H1456   1.084       .  S
C1449      H1457   1.088       .  S
C1449      C1450   1.351       .  D
C1450      H1458   1.085       .  S
C1459      C1467   1.499       .  S
C1459      C1460   1.407       .  A
C1459      C1464   1.409       .  A
C1460      C1461   1.406       .  A
C1460      H1469   1.083       .  S
C1461      C1462   1.408       .  A
C1461      H1470   1.082       .  S
C1462      C1465   1.493       .  S
C1462      C1463   1.404       .  A
C1463      C1464   1.399       .  A
C1463      H1471   1.083       .  S
C1464      H1472   1.081       .  S
C1465      H1473   1.087       .  S
C1465      C1466   1.351       .  D
C1466      H1474   1.085       .  S
C1467      H1475   1.086       .  S
C1467      C1468   1.350       .  D
C1468      H1476   1.084       .  S
C1477      C1485   1.497       .  S
C1477      C1478   1.406       .  A
C1477      C1482   1.409       .  A
C1478      C1479   1.402       .  A
C1478      H1487   1.083       .  S
C1479      C1480   1.408       .  A
C1479      H1488   1.082       .  S
C1480      C1483   1.495       .  S
C1480      C1481   1.405       .  A
C1481      C1482   1.402       .  A
C1481      H1489   1.083       .  S
C1482      H1490   1.081       .  S
C1483      H1491   1.088       .  S
C1483      C1484   1.348       .  D
C1484      H1492   1.084       .  S
C1485      H1493   1.086       .  S
C1485      C1486   1.350       .  D
C1486      H1494   1.084       .  S
C1495      C1503   1.487       .  S
C1495      C1496   1.405       .  A
C1495      C1500   1.406       .  A
C1496      C1497   1.405       .  A
C1496      H1505   1.084       .  S
C1497      C1498   1.408       .  A
C1497      H1506   1.082       .  S
C1498      C1501   1.482       .  S
C1498      C1499   1.401       .  A
C1499      C1500   1.395       .  A
C1499      H1507   1.084       .  S
C1500      H1508   1.082       .  S
C1501      H1509   1.088       .  S
C1501      C1502   1.348       .  D
C1502      H1510   1.086       .  S
C1503      H1511   1.087       .  S
C1503      C1504   1.344       .  D
C1504      H1512   1.087       .  S
C1513      C1521   1.496       .  S
C1513      C1514   1.409       .  A
C1513      C1518   1.405       .  A
C1514      C1515   1.405       .  A
C1514      H1523   1.083       .  S
C1515      C1516   1.406       .  A
C1515      H1524   1.081       .  S
C1516      C1519   1.496       .  S
C1516      C1517   1.408       .  A
C1517      C1518   1.401       .  A
C1517      H1525   1.084       .  S
C1518      H1526   1.081       .  S
C1519      H1527   1.088       .  S
C1519      C1520   1.356       .  D
C1520      H1528   1.085       .  S
C1521      H1529   1.087       .  S
C1521      C1522   1.356       .  D
C1522      H1530   1.084       .  S
C1531      C1539   1.471       .  S
C1531      C1532   1.404       .  A
C1531      C1536   1.404       .  A
C1532      C1533   1.393       .  A
C1532      H1541   1.083       .  S
C1533      C1534   1.399       .  A
C1533      H1542   1.082       .  S
C1534      C1537   1.462       .  S
C1534      C1535   1.403       .  A
C1535      C1536   1.388       .  A
C1535      H1543   1.084       .  S
C1536      H1544   1.082       .  S
C1537      H1545   1.087       .  S
C1537      C1538   1.351       .  D
C1538      H1546   1.084       .  S
C1539      H1547   1.087       .  S
C1539      C1540   1.343       .  D
C1540      H1548   1.085       .  S
C1549      C1557   1.489       .  S
C1549      C1550   1.405       .  A
C1549      C1554   1.407       .  A
C1550      C1551   1.398       .  A
C1550      H1559   1.083       .  S
C1551      C1552   1.406       .  A
C1551      H1560   1.081       .  S
C1552      C1555   1.485       .  S
C1552      C1553   1.405       .  A
C1553      C1554   1.399       .  A
C1553      H1561   1.083       .  S
C1554      H1562   1.081       .  S
C1555      H1563   1.087       .  S
C1555      C1556   1.348       .  D
C1556      H1564   1.084       .  S
C1557      H1565   1.086       .  S
C1557      C1558   1.349       .  D
C1558      H1566   1.084       .  S
C1567      C1575   1.488       .  S
C1567      C1568   1.408       .  A
C1567      C1572   1.405       .  A
C1568      C1569   1.407       .  A
C1568      H1577   1.082       .  S
C1569      C1570   1.406       .  A
C1569      H1578   1.083       .  S
C1570      C1573   1.485       .  S
C1570      C1571   1.403       .  A
C1571      C1572   1.392       .  A
C1571      H1579   1.083       .  S
C1572      H1580   1.082       .  S
C1573      H1581   1.087       .  S
C1573      C1574   1.350       .  D
C1574      H1582   1.085       .  S
C1575      H1583   1.086       .  S
C1575      C1576   1.348       .  D
C1576      H1584   1.085       .  S
C1585      C1593   1.489       .  S
C1585      C1586   1.405       .  A
C1585      C1590   1.408       .  A
C1586      C1587   1.399       .  A
C1586      H1595   1.083       .  S
C1587      C1588   1.406       .  A
C1587      H1596   1.083       .  S
C1588      C1591   1.492       .  S
C1588      C1589   1.406       .  A
C1589      C1590   1.404       .  A
C1589      H1597   1.083       .  S
C1590      H1598   1.082       .  S
C1591      H1599   1.086       .  S
C1591      C1592   1.349       .  D
C1592      H1600   1.085       .  S
C1593      H1601   1.087       .  S
C1593      C1594   1.350       .  D
C1594      H1602   1.084       .  S
C1603      C1611   1.489       .  S
C1603      C1604   1.403       .  A
C1603      C1608   1.408       .  A
C1604      C1605   1.398       .  A
C1604      H1613   1.083       .  S
C1605      C1606   1.409       .  A
C1605      H1614   1.080       .  S
C1606      C1609   1.493       .  S
C1606      C1607   1.405       .  A
C1607      C1608   1.400       .  A
C1607      H1615   1.083       .  S
C1608      H1616   1.081       .  S
C1609      H1617   1.086       .  S
C1609      C1610   1.348       .  D
C1610      H1618   1.082       .  S
C1611      H1619   1.087       .  S
C1611      C1612   1.345       .  D
C1612      H1620   1.083       .  S
C1621      C1629   1.492       .  S
C1621      C1622   1.405       .  A
C1621      C1626   1.411       .  A
C1622      C1623   1.401       .  A
C1622      H1631   1.083       .  S
C1623      C1624   1.408       .  A
C1623      H1632   1.082       .  S
C1624      C1627   1.481       .  S
C1624      C1625   1.398       .  A
C1625      C1626   1.394       .  A
C1625      H1633   1.084       .  S
C1626      H1634   1.079       .  S
C1627      H1635   1.088       .  S
C1627      C1628   1.341       .  D
C1628      H1636   1.086       .  S
C1629      H1637   1.087       .  S
C1629      C1630   1.345       .  D
C1630      H1638   1.082       .  S
