geometry optimzed in LAMMPS
_audit_creation_date              2020-11-30 
_audit_creation_method            'lammps2cif' 
_symmetry_space_group_name_H-M    'P1' 
_symmetry_Int_Tables_number       1 
_symmetry_cell_setting            triclinic 
loop_ 
_symmetry_equiv_pos_as_xyz 
  x,y,z 
_cell_length_a                    58.69439616 
_cell_length_b                    58.750591538771445 
_cell_length_c                    30.30013167973149 
_cell_angle_alpha                 90.06443426904609 
_cell_angle_beta                  90.41239124268292 
_cell_angle_gamma                 119.99163875877112 
loop_ 
_atom_site_label 
_atom_site_type_symbol 
_atom_site_fract_x 
_atom_site_fract_y 
_atom_site_fract_z 
_atom_site_charge 
O1          O  0.77942477  0.26393054  0.22120003    -0.74400
O2          O  0.73337320  0.21962272  0.31180786    -0.74400
O3          O  0.73309059  0.21785865  0.22218153    -0.74500
O4          O  0.77953016  0.26581087  0.31077960    -0.74500
O5          O  0.75764881  0.28756522  0.30829552    -0.74500
O6          O  0.71146452  0.23990863  0.22011898    -0.74500
O7          O  0.71160707  0.24160068  0.30957592    -0.74400
O8          O  0.75765278  0.28589944  0.21907129    -0.74500
Ni9        Ni  0.75713923  0.24101354  0.26656992     1.25400
Ni10       Ni  0.73382093  0.26448993  0.26414204     1.25400
C11         C  0.77620855  0.28233642  0.20523894     0.87800
C12         C  0.71508683  0.22350439  0.32612695     0.87700
C13         C  0.71452383  0.22101850  0.20634411     0.87700
C14         C  0.77616961  0.28460449  0.32451683     0.87900
C15         C  0.49337583  0.87331665  0.97746552     0.03100
C16         C  0.48897043  0.86011295  0.43459508    -0.13000
C17         C  0.48565156  0.83468110  0.43271945     0.00600
C18         C  0.48920145  0.82348681  0.97333361    -0.11500
C19         C  0.48828464  0.83402295  0.01423434     0.03100
C20         C  0.49018984  0.85876106  0.01618316    -0.10900
H21         H  0.49305171  0.87133789  0.40455485     0.08700
H22         H  0.48774845  0.80435769  0.97180290     0.06300
H23         H  0.48919892  0.86665291  0.04799860     0.06100
C24         C  0.37458557  0.87643993  0.50704574     0.03100
C25         C  0.36524960  0.86195342  0.46749733    -0.13000
C26         C  0.34234455  0.83721605  0.46707590     0.00600
C27         C  0.32918461  0.82642577  0.50658505    -0.11500
C28         C  0.33808505  0.84035603  0.04744374     0.03100
C29         C  0.36140854  0.86480873  0.04717506    -0.10900
H30         H  0.37605584  0.86945428  0.43718182     0.08700
H31         H  0.31154686  0.80723083  0.50636096     0.06300
H32         H  0.36898266  0.87550030  0.07792511     0.06100
C33         C  0.50398719  0.12447082  0.00816061     0.03100
C34         C  0.50329695  0.13689475  0.47170242    -0.13000
C35         C  0.50583075  0.16189611  0.47219704     0.00600
C36         C  0.50566598  0.17313809  0.01082425    -0.11500
C37         C  0.50761583  0.16172281  0.05001019     0.03100
C38         C  0.50725440  0.13768260  0.04868979    -0.10900
H39         H  0.50035085  0.12679261  0.44043267     0.08700
H40         H  0.50682418  0.19214550  0.01181958     0.06300
H41         H  0.50947887  0.12935746  0.07919196     0.06100
C42         C  0.61762199  0.12591938  0.01290250     0.03100
C43         C  0.63122253  0.13617586  0.05317927    -0.13000
C44         C  0.65475431  0.16037721  0.05448941     0.00600
C45         C  0.66550291  0.17392906  0.01527512    -0.11500
C46         C  0.65713262  0.16013946  0.47560059     0.03100
C47         C  0.63254671  0.13693494  0.47473807    -0.10900
H48         H  0.62361528  0.12536745  0.08355786     0.08700
H49         H  0.68396957  0.19239348  0.01617416     0.06300
H50         H  0.62222839  0.12998166  0.44349391     0.06100
C51         C  0.49855033  0.97442952  0.00283569     0.02300
C52         C  0.47435210  0.97438394  0.00658246     0.02300
C53         C  0.47459848  0.99843113  0.00656047    -0.18200
C54         C  0.49819977  0.02259679  0.00635233     0.02300
C55         C  0.52250383  0.02282079  0.00558663     0.02300
C56         C  0.52222541  0.99875588  0.00294030    -0.18200
H57         H  0.54067058  0.99905544  0.00035815     0.04300
H58         H  0.45607696  0.99828038  0.00637810     0.04300
O59         O  0.22222106  0.48443956  0.30308856    -0.74400
O60         O  0.27023511  0.48976801  0.21338196    -0.74400
O61         O  0.26957243  0.48666528  0.30249901    -0.74500
O62         O  0.22319893  0.48789444  0.21373316    -0.74500
O63         O  0.24393794  0.53148939  0.21855870    -0.74500
O64         O  0.28964703  0.53027447  0.30794241    -0.74500
O65         O  0.29111732  0.53342604  0.21867673    -0.74400
O66         O  0.24237702  0.52799039  0.30784419    -0.74500
Ni67       Ni  0.24556525  0.48564616  0.25803024     1.25400
Ni68       Ni  0.26747048  0.53234133  0.26342399     1.25400
C69         C  0.22431326  0.50525326  0.32056988     0.87800
C70         C  0.28882077  0.51237148  0.20160537     0.87700
C71         C  0.28745196  0.50834057  0.31960603     0.87700
C72         C  0.22618698  0.51002818  0.20094577     0.87900
O73         O  0.28596230  0.75937246  0.21022901    -0.74400
O74         O  0.24259518  0.71019910  0.29811641    -0.74400
O75         O  0.24090128  0.71211852  0.20892361    -0.74500
O76         O  0.28752520  0.75764501  0.29960941    -0.74500
O77         O  0.26395679  0.77772969  0.30322312    -0.74500
O78         O  0.21747586  0.73221470  0.21348406    -0.74500
O79         O  0.21917426  0.73039195  0.30237230    -0.74400
O80         O  0.26233361  0.77937766  0.21406596    -0.74500
Ni81       Ni  0.26510673  0.73412121  0.25407501     1.25400
Ni82       Ni  0.23992383  0.75563830  0.25848413     1.25400
C83         C  0.28133709  0.77745622  0.19746284     0.87800
C84         C  0.22351943  0.71202569  0.31456260     0.87700
C85         C  0.22137744  0.71463153  0.19611607     0.87700
C86         C  0.28346644  0.77539153  0.31620965     0.87900
C87         C  0.12554754  0.50276620  0.00934559     0.03100
C88         C  0.13883650  0.50555955  0.04980910    -0.13000
C89         C  0.16304688  0.50614719  0.05083809     0.00600
C90         C  0.17470608  0.50522954  0.01132567    -0.11500
C91         C  0.16097692  0.50404260  0.46745498     0.03100
C92         C  0.13624963  0.50230944  0.46622134    -0.10900
H93         H  0.13058495  0.50748579  0.08049807     0.08700
H94         H  0.19379528  0.50651160  0.01195457     0.06300
H95         H  0.12582384  0.49833988  0.43498883     0.06100
C96         C  0.12559364  0.61740716  0.00415743     0.03100
C97         C  0.14039475  0.62644005  0.46316895    -0.13000
C98         C  0.16556618  0.64875335  0.46262000     0.00600
C99         C  0.17463410  0.66410065  0.00526325    -0.11500
C100        C  0.16129384  0.65378399  0.04472513     0.03100
C101        C  0.13637418  0.63123024  0.04395368    -0.10900
H102        H  0.13172110  0.61614128  0.43248133     0.08700
H103        H  0.19361547  0.68200665  0.00591830     0.06300
H104        H  0.12580481  0.62406483  0.07461877     0.06100
C105        C  0.87374617  0.37959050  0.51713531     0.03100
C106        C  0.86015131  0.36861843  0.47715739    -0.13000
C107        C  0.83683673  0.34430282  0.47665951     0.00600
C108        C  0.82610231  0.33145077  0.51636896    -0.11500
C109        C  0.83644510  0.34207868  0.05509408     0.03100
C110        C  0.86146694  0.36465492  0.05600532    -0.10900
H111        H  0.86799830  0.37863783  0.44620835     0.08700
H112        H  0.80760516  0.31301201  0.51598205     0.06300
H113        H  0.87248838  0.37050881  0.08670750     0.06100
C114        C  0.87474899  0.49856477  0.48692145     0.03100
C115        C  0.86075034  0.49057326  0.02721035    -0.13000
C116        C  0.83666358  0.49016009  0.02688645     0.00600
C117        C  0.82614888  0.49711893  0.48538282    -0.11500
C118        C  0.84006506  0.50115477  0.44613164     0.03100
C119        C  0.86453587  0.50230120  0.44709533    -0.10900
H120        H  0.86870357  0.48842724  0.05831016     0.08700
H121        H  0.80717300  0.49607207  0.48482008     0.06300
H122        H  0.87566914  0.50651144  0.41694396     0.06100
C123        C  0.02339697  0.49693990  0.00661083     0.02300
C124        C  0.02360272  0.52116523  0.00288969     0.02300
C125        C  0.99959095  0.52093809  0.00031744    -0.18200
C126        C  0.97536593  0.49739159  0.00187239     0.02300
C127        C  0.97514828  0.47324445  0.00668114     0.02300
C128        C  0.99916525  0.47341761  0.00877000    -0.18200
H129        H  0.99899269  0.45503270  0.01209868     0.04300
H130        H  0.99974013  0.53932919  0.99723735     0.04300
O131        O  0.53366602  0.24284689  0.30587775    -0.74400
O132        O  0.53439068  0.28929210  0.21652379    -0.74400
O133        O  0.53392511  0.28902169  0.30582054    -0.74500
O134        O  0.53436215  0.24315929  0.21649829    -0.74500
O135        O  0.49069756  0.22137132  0.21489548    -0.74500
O136        O  0.49022001  0.26741769  0.30448985    -0.74500
O137        O  0.49072814  0.26756270  0.21498471    -0.74400
O138        O  0.49000745  0.22115600  0.30454559    -0.74500
Ni139      Ni  0.53560966  0.26682407  0.26121552     1.25400
Ni140      Ni  0.48884699  0.24358123  0.25966621     1.25400
C141        C  0.51175056  0.22443488  0.32049638     0.87800
C142        C  0.51270717  0.28617109  0.20074524     0.87700
C143        C  0.51208697  0.28593922  0.32001714     0.87700
C144        C  0.51268974  0.22475171  0.20052185     0.87900
O145        O  0.73177161  0.51185498  0.18672655    -0.74400
O146        O  0.78169190  0.51772077  0.27494041    -0.74400
O147        O  0.77811876  0.51216315  0.18585359    -0.74500
O148        O  0.73556376  0.51752171  0.27590861    -0.74500
O149        O  0.71421358  0.47399004  0.28354796    -0.74500
O150        O  0.75642109  0.46867710  0.19250784    -0.74500
O151        O  0.76028425  0.47416784  0.28143858    -0.74400
O152        O  0.71006932  0.46842329  0.19416881    -0.74500
Ni153      Ni  0.75752252  0.51635426  0.23052773     1.25400
Ni154      Ni  0.73444955  0.46976977  0.23810712     1.25400
C155        C  0.71272560  0.48915574  0.17552236     0.87800
C156        C  0.77915109  0.49683413  0.29289692     0.87700
C157        C  0.77435847  0.48954871  0.17415757     0.87700
C158        C  0.71849915  0.49672580  0.29562688     0.87900
O159        O  0.47223469  0.71006866  0.17937918    -0.74400
O160        O  0.46725284  0.75432956  0.26728615    -0.74400
O161        O  0.46890853  0.75444101  0.17777823    -0.74500
O162        O  0.47091995  0.71007049  0.26900311    -0.74500
O163        O  0.51447238  0.73447835  0.27169530    -0.74500
O164        O  0.51249651  0.77858324  0.18080320    -0.74500
O165        O  0.51078757  0.77869444  0.27033100    -0.74400
O166        O  0.51581083  0.73423885  0.18215919    -0.74500
Ni167      Ni  0.46828567  0.73136009  0.22329704     1.25400
Ni168      Ni  0.51492500  0.75734629  0.22635018     1.25400
C169        C  0.49483843  0.71495348  0.16565554     0.87800
C170        C  0.48806482  0.77376862  0.28370505     0.87700
C171        C  0.49049585  0.77392606  0.16407317     0.87700
C172        C  0.49311227  0.71496556  0.28561366     0.87900
C173        C  0.38245745  0.50833050  0.51379838     0.03100
C174        C  0.37048841  0.50829973  0.47325339    -0.13000
C175        C  0.34733777  0.50967937  0.47223066     0.00600
C176        C  0.33678469  0.51252066  0.51164922    -0.11500
C177        C  0.34735326  0.51265145  0.04901501     0.03100
C178        C  0.36973445  0.50977626  0.04898760    -0.10900
H179        H  0.37879808  0.50654251  0.44248027     0.08700
H180        H  0.31892699  0.51369685  0.51071792     0.06300
H181        H  0.37822511  0.50867032  0.08013063     0.06100
C182        C  0.49642816  0.61984177  0.47564218     0.03100
C183        C  0.49476568  0.63088812  0.01251717    -0.13000
C184        C  0.49399120  0.65436890  0.01393169     0.00600
C185        C  0.49063953  0.66451146  0.47689170    -0.11500
C186        C  0.49316980  0.65444365  0.43653718     0.03100
C187        C  0.49653817  0.63241839  0.43597468    -0.10900
H188        H  0.49396305  0.62098770  0.04306693     0.08700
H189        H  0.48892862  0.68205863  0.47743821     0.06300
H190        H  0.49904828  0.62500392  0.40470687     0.06100
C191        C  0.50974712  0.38173689  0.51043210     0.03100
C192        C  0.50601560  0.36829856  0.05195874    -0.13000
C193        C  0.50802625  0.34548091  0.05198490     0.00600
C194        C  0.51314433  0.33568083  0.50994221    -0.11500
C195        C  0.51126221  0.34651471  0.46999710     0.03100
C196        C  0.51005993  0.36977310  0.47019611    -0.10900
H197        H  0.50415612  0.37630652  0.08302826     0.08700
H198        H  0.51438227  0.31786498  0.50971438     0.06300
H199        H  0.50895572  0.37829159  0.43910979     0.06100
C200        C  0.62362823  0.50069878  0.48409674     0.03100
C201        C  0.63709641  0.50239260  0.44483132    -0.13000
C202        C  0.65978423  0.50007994  0.44563140     0.00600
C203        C  0.66971338  0.49734361  0.48622733    -0.07300
C204        C  0.65134315  0.48887647  0.02517886     0.03100
C205        C  0.62802861  0.49000355  0.02347321    -0.10900
H206        H  0.62991300  0.50551436  0.41370521     0.08700
H207        H  0.68749165  0.49602652  0.48721359     0.06300
H208        H  0.61732977  0.48778345  0.05359815     0.06100
C209        C  0.47664809  0.49999798  0.49543165     0.02300
C210        C  0.49943478  0.52266811  0.47986767     0.02300
C211        C  0.52258499  0.52172540  0.47341226    -0.18200
C212        C  0.52372922  0.49877251  0.48123572     0.02300
C213        C  0.50086970  0.47580286  0.49608770     0.02300
C214        C  0.47792094  0.47709828  0.50417711    -0.18200
H215        H  0.46085138  0.46018832  0.51778387     0.04300
H216        H  0.54014988  0.53929026  0.46262793     0.04300
C217        C  0.57467537  0.48033011  0.95077972    -0.20300
C218        C  0.59864275  0.50147373  0.48236151    -0.06900
C219        C  0.59445567  0.51902429  0.50854911     0.14000
C220        C  0.57002531  0.51793329  0.50644040    -0.20300
C221        C  0.54986896  0.50042603  0.47790642    -0.06900
C222        C  0.55150100  0.48158024  0.94662428     0.14000
C223        C  0.53199360  0.46502389  0.91135499    -0.23700
H224        H  0.57719954  0.46665671  0.93017736     0.15300
H225        H  0.56642378  0.53058743  0.52783414     0.15300
C226        C  0.61580700  0.53965962  0.53752908    -0.23600
H227        H  0.54182678  0.46993817  0.87878258     0.05500
H228        H  0.51816327  0.46996718  0.41175560     0.08800
H229        H  0.52454854  0.44389857  0.91808160     0.08800
H230        H  0.63399048  0.55125292  0.51809472     0.08700
H231        H  0.61787104  0.52617241  0.06264797     0.08700
H232        H  0.60998641  0.55355186  0.55117763     0.05500
C233        C  0.48662470  0.40502649  0.48430511    -0.20300
C234        C  0.50678826  0.40553912  0.51027761    -0.06900
C235        C  0.52095464  0.42781523  0.03380614     0.14000
C236        C  0.51745955  0.44977285  0.03080945    -0.20300
C237        C  0.50078117  0.45053498  0.50366895    -0.06900
C238        C  0.48361903  0.42719721  0.48008116     0.14000
C239        C  0.46281126  0.42565905  0.44876142    -0.23700
H240        H  0.47338013  0.38719189  0.46638636     0.15300
H241        H  0.53079802  0.46759635  0.04861149     0.15300
C242        C  0.54474333  0.43068585  0.05823493    -0.23600
H243        H  0.45309053  0.40681588  0.43008896     0.05500
H244        H  0.47166687  0.44181945  0.42439679     0.08800
H245        H  0.44726633  0.42680975  0.46740583     0.08800
H246        H  0.55645438  0.42554028  0.03596406     0.08700
H247        H  0.53877049  0.41785803  0.08761636     0.08700
H248        H  0.55776339  0.45118089  0.06993063     0.05500
C249        C  0.48270211  0.57519523  0.44587879    -0.20300
C250        C  0.49900167  0.59585427  0.47473205    -0.06900
C251        C  0.51857856  0.59391683  0.99423219     0.14000
C252        C  0.51818107  0.56980850  0.99424727    -0.20300
C253        C  0.50039333  0.54833513  0.47393324    -0.06900
C254        C  0.48370351  0.55183022  0.44420571     0.14000
C255        C  0.46711822  0.53162823  0.40984106    -0.23700
H256        H  0.46899830  0.57726254  0.42439846     0.15300
H257        H  0.53211946  0.56757107  0.01481692     0.15300
C258        C  0.54068833  0.61702801  0.01817957    -0.23600
H259        H  0.47238842  0.54065694  0.37660692     0.05500
H260        H  0.44436668  0.52489869  0.91329746     0.08800
H261        H  0.47011737  0.51444648  0.40970550     0.08800
H262        H  0.53324151  0.62299900  0.04679861     0.08700
H263        H  0.54922429  0.63349350  0.50650383     0.08700
H264        H  0.55557708  0.61226215  0.03104321     0.05500
C265        C  0.40530945  0.48484587  0.48775596    -0.20300
C266        C  0.40607876  0.50498351  0.51394928    -0.06900
C267        C  0.42849762  0.52286820  0.03051042     0.14000
C268        C  0.45053229  0.51955075  0.02667196    -0.20300
C269        C  0.45152699  0.50005468  0.50336714    -0.06900
C270        C  0.42780436  0.48275855  0.48078166     0.14000
C271        C  0.42574980  0.46320099  0.44645634    -0.23700
H272        H  0.38725123  0.47142274  0.47043393     0.15300
H273        H  0.46854597  0.53284858  0.04416569     0.15300
C274        C  0.43164433  0.54655280  0.05537460    -0.23600
H275        H  0.41793387  0.46658560  0.41517471     0.05500
H276        H  0.41207545  0.44294172  0.45795798     0.08800
H277        H  0.44487737  0.46491434  0.43845074     0.08800
H278        H  0.41986526  0.54054719  0.08590414     0.08700
H279        H  0.42551931  0.55795193  0.03406015     0.08700
H280        H  0.45243201  0.55991135  0.06544830     0.05500
C281        C  0.46991657  0.68072409  0.34280475    -0.20300
C282        C  0.49377130  0.69815707  0.32208887    -0.06900
C283        C  0.51731626  0.69929264  0.33751802     0.14000
C284        C  0.51629530  0.68388689  0.37378447    -0.20300
C285        C  0.49261642  0.66755779  0.39524037    -0.06900
C286        C  0.46909213  0.66555976  0.37913754     0.14000
C287        C  0.44306451  0.64741247  0.40034374    -0.23700
H288        H  0.45174189  0.67933611  0.33129087     0.15300
H289        H  0.53423066  0.68516508  0.38643055     0.15300
C290        C  0.54368882  0.71653319  0.31651991    -0.23600
H291        H  0.42646230  0.64754863  0.38276558     0.05500
H292        H  0.44316577  0.65360644  0.43492377     0.08800
H293        H  0.43949873  0.62698531  0.39990710     0.08800
H294        H  0.54962848  0.73754307  0.32088564     0.08700
H295        H  0.54268483  0.71165606  0.28088369     0.08700
H296        H  0.55938740  0.71374058  0.33175325     0.05500
C297        C  0.47315606  0.67453746  0.11840820    -0.20300
C298        C  0.49623574  0.69822520  0.12958664    -0.06900
C299        C  0.51924753  0.70581132  0.10427865     0.14000
C300        C  0.51807912  0.69029000  0.06802574    -0.20300
C301        C  0.49477486  0.66738538  0.05624802    -0.06900
C302        C  0.47216249  0.65914002  0.08207312     0.14000
C303        C  0.44674862  0.63462557  0.07027790    -0.23700
H304        H  0.45549250  0.66824266  0.13754343     0.15300
H305        H  0.53531826  0.69646384  0.04773572     0.15300
C306        C  0.54495593  0.73057634  0.11374643    -0.23600
H307        H  0.43077036  0.63113005  0.09348938     0.05500
H308        H  0.44958396  0.61731416  0.07140934     0.08800
H309        H  0.44036964  0.63644306  0.03651074     0.08800
H310        H  0.55217953  0.72961747  0.14726459     0.08700
H311        H  0.54230576  0.74796191  0.11108740     0.08700
H312        H  0.56047148  0.73334601  0.09002357     0.05500
C313        C  0.69311115  0.51014837  0.12944623    -0.20300
C314        C  0.69400851  0.48728877  0.14008311    -0.06900
C315        C  0.67834731  0.46409132  0.11482036     0.14000
C316        C  0.66340758  0.46489834  0.07896400    -0.20300
C317        C  0.66352709  0.48806398  0.06761044    -0.06900
C318        C  0.67833031  0.51092136  0.09350473     0.14000
C319        C  0.68006243  0.53684346  0.08308573    -0.23700
H320        H  0.70469661  0.52797573  0.14856016     0.15300
H321        H  0.65222153  0.44754795  0.05855835     0.15300
C322        C  0.67793722  0.43865529  0.12378994    -0.23600
H323        H  0.67271363  0.54317912  0.11153423     0.05500
H324        H  0.66851862  0.53607962  0.05351034     0.08800
H325        H  0.70089710  0.55192222  0.07714393     0.08800
H326        H  0.67003335  0.43145074  0.15721876     0.08700
H327        H  0.69810170  0.44166175  0.12113211     0.08700
H328        H  0.66522247  0.42301132  0.09982061     0.05500
C329        C  0.67671601  0.48034606  0.33631656    -0.20300
C330        C  0.70364431  0.49886738  0.33316987    -0.06900
C331        C  0.71577147  0.51826444  0.36670092     0.14000
C332        C  0.70040413  0.51917190  0.40112632    -0.20300
C333        C  0.67360202  0.50047523  0.40455882    -0.06900
C334        C  0.66160424  0.48069935  0.37181015     0.14000
C335        C  0.63329074  0.45917023  0.37521604    -0.23700
H336        H  0.66750986  0.46525887  0.31108995     0.15300
H337        H  0.70975751  0.53389091  0.42691192     0.15300
C338        C  0.74503074  0.53714941  0.36960822    -0.23600
H339        H  0.62764722  0.44449345  0.34816862     0.05500
H340        H  0.62007233  0.46753621  0.37304805     0.08800
H341        H  0.63015732  0.44871357  0.40705856     0.08800
H342        H  0.75660511  0.53337748  0.34509977     0.08700
H343        H  0.75246504  0.53540538  0.40252442     0.08700
H344        H  0.74898345  0.55758799  0.36562724     0.05500
C345        C  0.48876187  0.29449894  0.38038094    -0.20300
C346        C  0.51189696  0.30337513  0.35571602    -0.06900
C347        C  0.53410547  0.32820418  0.36655671     0.14000
C348        C  0.53284205  0.34255264  0.40271837    -0.20300
C349        C  0.51019094  0.33281731  0.42840533    -0.06900
C350        C  0.48769867  0.30883036  0.41659645     0.14000
C351        C  0.46257325  0.29829064  0.44237818    -0.23700
H352        H  0.47155558  0.27580911  0.37221527     0.15300
H353        H  0.54995588  0.36107794  0.41204339     0.15300
C354        C  0.55924154  0.33997789  0.34053196    -0.23600
H355        H  0.44663182  0.27964908  0.42798773     0.05500
H356        H  0.45581743  0.31289061  0.44226331     0.08800
H357        H  0.46586336  0.29434782  0.47695497     0.08800
H358        H  0.55496881  0.34125779  0.30514599     0.08700
H359        H  0.56880173  0.32788416  0.34434410     0.08700
H360        H  0.57360951  0.36014477  0.35212324     0.05500
C361        C  0.48823446  0.30070342  0.15132460    -0.20300
C362        C  0.51264441  0.30380984  0.16517293    -0.06900
C363        C  0.53584773  0.32288197  0.14352994     0.14000
C364        C  0.53370580  0.33707276  0.10798747    -0.20300
C365        C  0.50925901  0.33301214  0.09354193    -0.06900
C366        C  0.48630079  0.31497126  0.11576984     0.14000
C367        C  0.45969475  0.31021756  0.10102494    -0.23700
H368        H  0.47035351  0.28657364  0.16767618     0.15300
H369        H  0.55119340  0.35096809  0.09037622     0.15300
C370        C  0.56297098  0.32824917  0.15641412    -0.23600
H371        H  0.44366258  0.29529702  0.12175664     0.05500
H372        H  0.45585820  0.30309234  0.06631859     0.08800
H373        H  0.45914422  0.32879704  0.10330818     0.08800
H374        H  0.56432203  0.31019790  0.15202384     0.08700
H375        H  0.56731293  0.33511672  0.19122410     0.08700
H376        H  0.57848736  0.34380557  0.13574912     0.05500
C377        C  0.81967419  0.48152141  0.37398452    -0.20300
C378        C  0.82792122  0.50242300  0.40392366    -0.06900
C379        C  0.82248138  0.52280510  0.39482452     0.14000
C380        C  0.80748304  0.52094396  0.35725929    -0.20300
C381        C  0.79752302  0.49904974  0.32881320    -0.06900
C382        C  0.80447394  0.47947506  0.33658037     0.14000
C383        C  0.79628153  0.45652016  0.30558777    -0.23700
H384        H  0.82429012  0.46616130  0.38091497     0.15300
H385        H  0.80268930  0.53623901  0.35104806     0.15300
C386        C  0.83260221  0.54658193  0.42450687    -0.23600
H387        H  0.80532403  0.44451050  0.31503447     0.05500
H388        H  0.80261912  0.46375965  0.27151664     0.08800
H389        H  0.77464011  0.44339173  0.30627499     0.08800
H390        H  0.85435996  0.55633143  0.42723213     0.08700
H391        H  0.82396663  0.54077709  0.45784712     0.08700
H392        H  0.82747377  0.56112928  0.41145187     0.05500
C393        C  0.79945126  0.46595132  0.07793295    -0.20300
C394        C  0.82292091  0.48898176  0.06820407    -0.06900
C395        C  0.83111234  0.51155474  0.09462086     0.14000
C396        C  0.81523474  0.51076789  0.12964540    -0.20300
C397        C  0.79114911  0.48797080  0.13890461    -0.06900
C398        C  0.78346757  0.46501233  0.11302240     0.14000
C399        C  0.75809262  0.43971875  0.12058447    -0.23700
H400        H  0.79325764  0.44882591  0.05702257     0.15300
H401        H  0.82151987  0.52833626  0.14938888     0.15300
C402        C  0.85608463  0.53680494  0.08472090    -0.23600
H403        H  0.75504277  0.42433079  0.09611260     0.05500
H404        H  0.74121537  0.44317623  0.11753314     0.08800
H405        H  0.75836688  0.43192392  0.15381053     0.08800
H406        H  0.85504560  0.54340476  0.05080997     0.08700
H407        H  0.87319256  0.53367175  0.08731617     0.08700
H408        H  0.85936573  0.55275481  0.10811029     0.05500
C409        C  0.91913605  0.51535626  0.52066388    -0.20300
C410        C  0.90060193  0.49949474  0.48841110    -0.06900
C411        C  0.90738281  0.48051626  0.96034734     0.14000
C412        C  0.93243840  0.48301753  0.96360943    -0.20300
C413        C  0.94984266  0.50157350  0.49613782    -0.06900
C414        C  0.94327311  0.51603266  0.52576793     0.14000
C415        C  0.96072565  0.53093200  0.56450105    -0.23700
H416        H  0.91443229  0.52692026  0.54275413     0.15300
H417        H  0.93765169  0.47203552  0.94109859     0.15300
C418        C  0.88761069  0.46031744  0.92872817    -0.23600
H419        H  0.95108905  0.53860737  0.58666029     0.05500
H420        H  0.97925550  0.54806322  0.55321396     0.08800
H421        H  0.96473642  0.51308581  0.08584482     0.08800
H422        H  0.88151601  0.47268959  0.40219908     0.08700
H423        H  0.86929246  0.44685435  0.94657576     0.08700
H424        H  0.89515271  0.44813240  0.91371177     0.05500
C425        C  0.91791203  0.40680130  0.48390207    -0.20300
C426        C  0.89979869  0.40435840  0.51633014    -0.06900
C427        C  0.90660241  0.42430983  0.04608310     0.14000
C428        C  0.93219793  0.44596655  0.04401160    -0.20300
C429        C  0.94943645  0.45092717  0.50923438    -0.06900
C430        C  0.94212833  0.43000409  0.47896827     0.14000
C431        C  0.95886293  0.43247448  0.43967730    -0.23700
H432        H  0.91283074  0.39054846  0.46144847     0.15300
H433        H  0.93800026  0.46228538  0.06664169     0.15300
C434        C  0.88715870  0.42582380  0.07651193    -0.23600
H435        H  0.94871366  0.41526782  0.41713714     0.05500
H436        H  0.97725981  0.42844951  0.95521667     0.08800
H437        H  0.96320975  0.45028447  0.42053601     0.08800
H438        H  0.88130890  0.41118537  0.10325003     0.08700
H439        H  0.86846293  0.42160667  0.55795195     0.08700
H440        H  0.89561925  0.44545834  0.09249467     0.05500
C441        C  0.08177481  0.59039808  0.46952754    -0.20300
C442        C  0.09970425  0.59236286  0.00389876    -0.06900
C443        C  0.09261916  0.57290219  0.03694055     0.14000
C444        C  0.06678598  0.55173595  0.03820850    -0.20300
C445        C  0.04882303  0.54689736  0.00366982    -0.06900
C446        C  0.05651376  0.56812104  0.46758967     0.14000
C447        C  0.03967271  0.56372077  0.42710839    -0.23700
H448        H  0.08769849  0.60496589  0.44370643     0.15300
H449        H  0.06128087  0.53758449  0.06466958     0.15300
C450        C  0.11205982  0.57225070  0.06905534    -0.23600
H451        H  0.05039350  0.57885675  0.40158879     0.05500
H452        H  0.02135570  0.56053296  0.93658939     0.08800
H453        H  0.03378117  0.54422706  0.41231412     0.08800
H454        H  0.10744622  0.57550647  0.10314592     0.08700
H455        H  0.13121204  0.58680726  0.56289592     0.08700
H456        H  0.11062954  0.55267829  0.06736373     0.05500
C457        C  0.08099575  0.48754483  0.04131698    -0.20300
C458        C  0.09944622  0.50158592  0.00819378    -0.06900
C459        C  0.09134795  0.51628100  0.46955485     0.14000
C460        C  0.06547496  0.51173253  0.46837198    -0.20300
C461        C  0.04843083  0.49601535  0.00646050    -0.06900
C462        C  0.05613489  0.48563140  0.04198736     0.14000
C463        C  0.03902868  0.47384868  0.08191040    -0.23700
H464        H  0.08613201  0.47828055  0.06739267     0.15300
H465        H  0.05957558  0.51993420  0.44156338     0.15300
C466        C  0.11008346  0.53514687  0.43593844    -0.23600
H467        H  0.04933024  0.46916890  0.10816537     0.05500
H468        H  0.02126606  0.45905294  0.57055943     0.08800
H469        H  0.03367041  0.48799067  0.09596434     0.08800
H470        H  0.10478863  0.52603625  0.40258642     0.08700
H471        H  0.13234350  0.54043154  0.95186427     0.08700
H472        H  0.10866075  0.55331395  0.43578965     0.05500
C473        C  0.16707053  0.68300671  0.10769720    -0.20300
C474        C  0.17427558  0.66636029  0.08678473    -0.06900
C475        C  0.19534713  0.66389694  0.10390058     0.14000
C476        C  0.20972133  0.67936844  0.14012490    -0.20300
C477        C  0.20361925  0.69729759  0.16011412    -0.06900
C478        C  0.18133851  0.69851528  0.14418244     0.14000
C479        C  0.17239028  0.71617394  0.16441661    -0.23700
H480        H  0.15069851  0.68452972  0.09432922     0.15300
H481        H  0.22621381  0.67763013  0.15218154     0.15300
C482        C  0.20332703  0.64527352  0.08451393    -0.23600
H483        H  0.15425316  0.71372569  0.14821591     0.05500
H484        H  0.18783106  0.73707716  0.16061622     0.08800
H485        H  0.16789869  0.71136194  0.19986152     0.08800
H486        H  0.22377978  0.65661307  0.07214633     0.08700
H487        H  0.19040094  0.63325095  0.05689741     0.08700
H488        H  0.20246514  0.63153328  0.11045284     0.05500
C489        C  0.21773674  0.68095490  0.37493806    -0.20300
C490        C  0.20684272  0.69304389  0.34893996    -0.06900
C491        C  0.18058492  0.68693191  0.35695028     0.14000
C492        C  0.16694351  0.67074188  0.39265009    -0.20300
C493        C  0.17870786  0.66046649  0.42048753    -0.06900
C494        C  0.20396647  0.66466369  0.41042999     0.14000
C495        C  0.21689365  0.65227410  0.43647178    -0.23700
H496        H  0.23748350  0.68479314  0.36842489     0.15300
H497        H  0.14738270  0.66711640  0.40025115     0.15300
C498        C  0.16659748  0.69717473  0.32828183    -0.23600
H499        H  0.23523871  0.66787391  0.45224042     0.05500
H500        H  0.22190120  0.64053874  0.41391741     0.08800
H501        H  0.20403802  0.63886805  0.46253651     0.08800
H502        H  0.16718882  0.69197738  0.29321845     0.08700
H503        H  0.17591424  0.71879971  0.33202248     0.08700
H504        H  0.14560998  0.68858852  0.33750673     0.05500
C505        C  0.31602515  0.53481002  0.13617611    -0.20300
C506        C  0.30719452  0.51412094  0.16655833    -0.06900
C507        C  0.31474395  0.49482437  0.16078962     0.14000
C508        C  0.32828349  0.49519587  0.12255198    -0.20300
C509        C  0.33580230  0.51506956  0.09099634    -0.06900
C510        C  0.33064161  0.53582295  0.09900559     0.14000
C511        C  0.34046231  0.55947485  0.06945352    -0.23700
H512        H  0.31101728  0.55008721  0.14086410     0.15300
H513        H  0.33281496  0.47963616  0.11715940     0.15300
C514        C  0.30968306  0.47398974  0.19453129    -0.23600
H515        H  0.35214697  0.57762711  0.08937547     0.05500
H516        H  0.32347724  0.56003991  0.05428502     0.08800
H517        H  0.35341041  0.55969710  0.04283940     0.08800
H518        H  0.30248893  0.47709335  0.22636366     0.08700
H519        H  0.32838029  0.47430093  0.20212714     0.08700
H520        H  0.29529317  0.45433600  0.18104660     0.05500
C521        C  0.29420200  0.48639792  0.38387551    -0.20300
C522        C  0.30489242  0.50781512  0.35483245    -0.06900
C523        C  0.33108002  0.52857834  0.36218288     0.14000
C524        C  0.34472374  0.52833221  0.40030137    -0.20300
C525        C  0.33339871  0.50749171  0.43023887    -0.06900
C526        C  0.30815650  0.48583986  0.42115981     0.14000
C527        C  0.29527336  0.46185511  0.45012568    -0.23700
H528        H  0.27440587  0.47018752  0.37824690     0.15300
H529        H  0.36431531  0.54467717  0.40693019     0.15300
C530        C  0.34570259  0.55092077  0.33039907    -0.23600
H531        H  0.29022747  0.44410078  0.43004213     0.05500
H532        H  0.27693298  0.45984491  0.46414759     0.08800
H533        H  0.30806908  0.46247506  0.47771097     0.08800
H534        H  0.33549009  0.54795686  0.29828797     0.08700
H535        H  0.36505547  0.55277265  0.32289719     0.08700
H536        H  0.34910868  0.56957868  0.34561953     0.05500
C537        C  0.17542641  0.48083865  0.41646136    -0.20300
C538        C  0.17440096  0.50356708  0.42660718    -0.06900
C539        C  0.18881368  0.52633414  0.40083958     0.14000
C540        C  0.20411599  0.52585129  0.36588677    -0.20300
C541        C  0.20586971  0.50334908  0.35607589    -0.06900
C542        C  0.19088022  0.48031058  0.38161159     0.14000
C543        C  0.19161054  0.45532059  0.37389160    -0.23700
H544        H  0.16458895  0.46359459  0.43685617     0.15300
H545        H  0.21523306  0.54356696  0.34668978     0.15300
C546        C  0.18934819  0.55181947  0.41021993    -0.23600
H547        H  0.17942262  0.43985554  0.39808899     0.05500
H548        H  0.21211310  0.45922822  0.37726342     0.08800
H549        H  0.18371006  0.44735381  0.34052059     0.08800
H550        H  0.20991146  0.56754837  0.41693823     0.08700
H551        H  0.17739137  0.55077745  0.43905553     0.08700
H552        H  0.18173309  0.55741251  0.38101129     0.05500
C553        C  0.20064031  0.53110476  0.10167153    -0.20300
C554        C  0.17689167  0.50802946  0.09280681    -0.06900
C555        C  0.16864608  0.48617036  0.12075720     0.14000
C556        C  0.18474737  0.48773114  0.15650870    -0.20300
C557        C  0.20904714  0.51061034  0.16493760    -0.06900
C558        C  0.21685538  0.53280314  0.13728937     0.14000
C559        C  0.24267829  0.55800934  0.14338297    -0.23700
H560        H  0.20689128  0.54765135  0.07958343     0.15300
H561        H  0.17849908  0.47073567  0.17748676     0.15300
C562        C  0.14342357  0.46084735  0.11176750    -0.23600
H563        H  0.24582048  0.57258887  0.11738139     0.05500
H564        H  0.25922986  0.55397486  0.14167926     0.08800
H565        H  0.24300720  0.56716661  0.17560984     0.08800
H566        H  0.14406150  0.45328104  0.07846906     0.08700
H567        H  0.12649518  0.46428806  0.11333509     0.08700
H568        H  0.14017381  0.44549113  0.13628269     0.05500
C569        C  0.55178544  0.06578040  0.04293608    -0.20300
C570        C  0.54818863  0.04819104  0.00848862    -0.06900
C571        C  0.56777791  0.05520617  0.47443594     0.14000
C572        C  0.59121692  0.07954555  0.47767900    -0.20300
C573        C  0.59288301  0.09972485  0.01132230    -0.06900
C574        C  0.57264149  0.09184683  0.04295766     0.14000
C575        C  0.57095220  0.11067515  0.07485943    -0.23700
H576        H  0.53691603  0.05975909  0.06821347     0.15300
H577        H  0.60596461  0.08479648  0.45241678     0.15300
C578        C  0.56259240  0.03900223  0.43302001    -0.23600
H579        H  0.55139258  0.10919388  0.07137828     0.05500
H580        H  0.59128480  0.12975068  0.57224951     0.08800
H581        H  0.57323845  0.10551296  0.10920235     0.08800
H582        H  0.54345273  0.03456383  0.41814313     0.08700
H583        H  0.56507314  0.02231575  0.94395981     0.08700
H584        H  0.57804259  0.04959394  0.40794105     0.05500
C585        C  0.53369804  0.19611796  0.10552346    -0.20300
C586        C  0.50935935  0.17515801  0.09212987    -0.06900
C587        C  0.48655426  0.16951609  0.11567579     0.14000
C588        C  0.48849582  0.18547480  0.15164545    -0.20300
C589        C  0.51273251  0.20730627  0.16452796    -0.06900
C590        C  0.53582790  0.21229522  0.14138400     0.14000
C591        C  0.56275999  0.23491086  0.15280441    -0.23700
H592        H  0.55102740  0.20034185  0.08675210     0.15300
H593        H  0.47073015  0.18113430  0.16907635     0.15300
C594        C  0.46003247  0.14712242  0.10185601    -0.23600
H595        H  0.57816394  0.23564045  0.13079223     0.05500
H596        H  0.56819618  0.23278433  0.18709454     0.08800
H597        H  0.56298117  0.25382201  0.14913753     0.08800
H598        H  0.46024648  0.12834719  0.10330553     0.08700
H599        H  0.45537035  0.15025186  0.06759065     0.08700
H600        H  0.44412577  0.14540496  0.12366901     0.05500
C601        C  0.48644744  0.18696334  0.37173993    -0.20300
C602        C  0.51116339  0.20702148  0.35702900    -0.06900
C603        C  0.53422102  0.21041854  0.37896052     0.14000
C604        C  0.53170473  0.19466114  0.41550211    -0.20300
C605        C  0.50702919  0.17557326  0.43071979    -0.06900
C606        C  0.48415527  0.17131621  0.40830960     0.14000
C607        C  0.45733738  0.15073323  0.42378697    -0.23700
H608        H  0.46864769  0.18379698  0.35526703     0.15300
H609        H  0.54913468  0.19761280  0.43311539     0.15300
C610        C  0.56162444  0.23069397  0.36517631    -0.23600
H611        H  0.44140244  0.15002931  0.40280058     0.05500
H612        H  0.45431924  0.15511563  0.45821049     0.08800
H613        H  0.45571783  0.13108851  0.42262651     0.08800
H614        H  0.56438328  0.25072679  0.36876444     0.08700
H615        H  0.56497728  0.22707896  0.33049028     0.08700
H616        H  0.57695149  0.22996858  0.38585989     0.05500
C617        C  0.51313075  0.06710899  0.47578990    -0.20300
C618        C  0.49727325  0.04758304  0.00542190    -0.06900
C619        C  0.48589006  0.05480265  0.03980816     0.14000
C620        C  0.48796226  0.07968504  0.03910235    -0.20300
C621        C  0.50275137  0.09844210  0.00685600    -0.06900
C622        C  0.51771836  0.09288106  0.47815523     0.14000
C623        C  0.53859363  0.11279569  0.44823408    -0.23700
H624        H  0.52248289  0.06203087  0.44990365     0.15300
H625        H  0.47820614  0.08462456  0.06444532     0.15300
C626        C  0.47278075  0.03707935  0.07863479    -0.23600
H627        H  0.55673774  0.11141059  0.45144785     0.05500
H628        H  0.54143411  0.13188059  0.95086501     0.08800
H629        H  0.53163933  0.10865555  0.41342342     0.08800
H630        H  0.48645207  0.03150684  0.09426595     0.08700
H631        H  0.45557902  0.01996936  0.57045001     0.08700
H632        H  0.46719075  0.04692982  0.10416981     0.05500
C633        C  0.32090498  0.83345436  0.39495055    -0.20300
C634        C  0.33112806  0.82281907  0.42524338    -0.06900
C635        C  0.32778961  0.79761615  0.41731074     0.14000
C636        C  0.31281951  0.78299750  0.38074200    -0.20300
C637        C  0.30105479  0.79287945  0.35181459    -0.06900
C638        C  0.30584335  0.81884791  0.35838306     0.14000
C639        C  0.29539272  0.83151355  0.32714258    -0.23700
H640        H  0.32376852  0.85290788  0.40107462     0.15300
H641        H  0.30971778  0.76337738  0.37560289     0.15300
C642        C  0.33973210  0.78557942  0.44671097    -0.23600
H643        H  0.30291337  0.85249230  0.33564685     0.05500
H644        H  0.27362217  0.82139879  0.32875016     0.08800
H645        H  0.30161110  0.83067943  0.29293037     0.08800
H646        H  0.32384700  0.76739867  0.46186727     0.08700
H647        H  0.35222819  0.79899591  0.47346290     0.08700
H648        H  0.35233918  0.78046852  0.42670944     0.05500
C649        C  0.33731537  0.81908886  0.11823750    -0.20300
C650        C  0.32473492  0.82793171  0.08920123    -0.06900
C651        C  0.29867572  0.82187336  0.09788106     0.14000
C652        C  0.28543272  0.80601336  0.13409589    -0.20300
C653        C  0.29742348  0.79583566  0.16193068    -0.06900
C654        C  0.32403211  0.80303292  0.15438488     0.14000
C655        C  0.33873783  0.79411071  0.18412085    -0.23700
H656        H  0.35732507  0.82385172  0.11141607     0.15300
H657        H  0.26523065  0.80097222  0.13979671     0.15300
C658        C  0.28422655  0.83173934  0.06957886    -0.23600
H659        H  0.35978220  0.80320999  0.17493738     0.05500
H660        H  0.33009746  0.77250357  0.18154865     0.08800
H661        H  0.33790773  0.79976824  0.21880398     0.08800
H662        H  0.26667803  0.81479960  0.05430599     0.08700
H663        H  0.29654541  0.84501135  0.04294306     0.08700
H664        H  0.27768624  0.84292522  0.09042858     0.05500
C665        C  0.41854083  0.90710391  0.53962737    -0.20300
C666        C  0.39921448  0.90254430  0.50771691    -0.06900
C667        C  0.40424327  0.92180782  0.97760298     0.14000
C668        C  0.42869521  0.94520647  0.97816840    -0.20300
C669        C  0.44833558  0.94955568  0.00930647    -0.06900
C670        C  0.44208466  0.93119596  0.54245160     0.14000
C671        C  0.45979528  0.93561561  0.58158285    -0.23700
H672        H  0.41507737  0.89187807  0.56325271     0.15300
H673        H  0.43252866  0.96029106  0.95404299     0.15300
C674        C  0.38297565  0.91996104  0.94698477    -0.23600
H675        H  0.44840876  0.93201569  0.61243069     0.05500
H676        H  0.47692002  0.95533789  0.08315405     0.08800
H677        H  0.46744820  0.92175871  0.58014647     0.08800
H678        H  0.36484018  0.91444626  0.96595794     0.08700
H679        H  0.37767627  0.90697315  0.42154875     0.08700
H680        H  0.38895124  0.93904290  0.93069915     0.05500
C681        C  0.50964366  0.83016323  0.08205709    -0.20300
C682        C  0.48718473  0.81970561  0.05502622    -0.06900
C683        C  0.46536882  0.79497669  0.06526757     0.14000
C684        C  0.46698434  0.78089705  0.10136787    -0.20300
C685        C  0.48987131  0.79076153  0.12772511    -0.06900
C686        C  0.51143031  0.81609660  0.11810131     0.14000
C687        C  0.53646657  0.82873257  0.14521137    -0.23700
H688        H  0.52629458  0.84917112  0.07389155     0.15300
H689        H  0.45022840  0.76174705  0.10836622     0.15300
C690        C  0.44004245  0.78292511  0.03901701    -0.23600
H691        H  0.55034391  0.84904817  0.13410465     0.05500
H692        H  0.54674834  0.81729654  0.14198085     0.08800
H693        H  0.53189853  0.82988239  0.18036575     0.08800
H694        H  0.43638008  0.76413435  0.02397931     0.08700
H695        H  0.44013761  0.79585472  0.01233275     0.08700
H696        H  0.42350507  0.77888201  0.06128572     0.05500
C697        C  0.46269647  0.79938958  0.37706035    -0.20300
C698        C  0.48586783  0.82197572  0.39044955    -0.06900
C699        C  0.50926582  0.82960881  0.36708001     0.14000
C700        C  0.50909022  0.81398081  0.33168438    -0.20300
C701        C  0.48610054  0.79062438  0.31903286    -0.06900
C702        C  0.46234849  0.78363597  0.34179463     0.14000
C703        C  0.43657904  0.75928246  0.33068552    -0.23700
H704        H  0.44485763  0.79358066  0.39548706     0.15300
H705        H  0.52730680  0.81982177  0.31450221     0.15300
C706        C  0.53469525  0.85356924  0.38070789    -0.23600
H707        H  0.42043967  0.75702954  0.35246387     0.05500
H708        H  0.43847514  0.74153295  0.33496508     0.08800
H709        H  0.43064165  0.76039813  0.29625027     0.08800
H710        H  0.53952962  0.85157618  0.41547315     0.08700
H711        H  0.53282345  0.87137923  0.37761217     0.08700
H712        H  0.55133368  0.85633731  0.35975666     0.05500
C713        C  0.48066627  0.93212191  0.46003521    -0.20300
C714        C  0.49916992  0.94944726  0.99520958    -0.06900
C715        C  0.51436589  0.94183299  0.02143551     0.14000
C716        C  0.51275793  0.91747423  0.01332958    -0.20300
C717        C  0.49578923  0.89986783  0.98091881    -0.06900
C718        C  0.47678456  0.90673154  0.45325021     0.14000
C719        C  0.45562786  0.88874942  0.42110436    -0.23700
H720        H  0.46981211  0.93870937  0.43977045     0.15300
H721        H  0.52458552  0.91186770  0.03316993     0.15300
C722        C  0.53139234  0.95835368  0.05948309    -0.23600
H723        H  0.44403996  0.89767360  0.40859205     0.05500
H724        H  0.44611826  0.86967179  0.94061705     0.08800
H725        H  0.46435321  0.88466935  0.39203801     0.08800
H726        H  0.52020420  0.96426754  0.08140621     0.08700
H727        H  0.54742241  0.97354575  0.54502438     0.08700
H728        H  0.53845522  0.94739689  0.07992287     0.05500
C729        C  0.80380194  0.28786362  0.13987435    -0.20300
C730        C  0.79368638  0.29904979  0.16934851    -0.06900
C731        C  0.80019078  0.32557415  0.16329379     0.14000
C732        C  0.81529386  0.33953100  0.12673353    -0.20300
C733        C  0.82392663  0.32770513  0.09604418    -0.06900
C734        C  0.81874273  0.30182144  0.10324384     0.14000
C735        C  0.82913301  0.28898571  0.07252848    -0.23700
H736        H  0.79932812  0.26777044  0.14471115     0.15300
H737        H  0.81968695  0.35955319  0.12119340     0.15300
C738        C  0.79172597  0.33953485  0.19532714    -0.23600
H739        H  0.82416033  0.26909887  0.08405504     0.05500
H740        H  0.85088368  0.30118318  0.07069084     0.08800
H741        H  0.82055096  0.28683369  0.03901622     0.08800
H742        H  0.79832923  0.33830645  0.22923762     0.08700
H743        H  0.77002560  0.33063347  0.19440311     0.08700
H744        H  0.80032835  0.36066362  0.18708571     0.05500
C745        C  0.81206276  0.29693087  0.38000839    -0.20300
C746        C  0.79348854  0.30244467  0.36054451    -0.06900
C747        C  0.79148329  0.32407002  0.37728432     0.14000
C748        C  0.80671510  0.33811651  0.41421816    -0.20300
C749        C  0.82394475  0.33139199  0.43464041    -0.06900
C750        C  0.82726730  0.31113444  0.41667112     0.14000
C751        C  0.84678489  0.30440240  0.43644837    -0.23700
H752        H  0.81436277  0.28097058  0.36725289     0.15300
H753        H  0.80463861  0.35398735  0.42813373     0.15300
C754        C  0.77335822  0.33260239  0.35727768    -0.23600
H755        H  0.84729899  0.28833975  0.41793917     0.05500
H756        H  0.84146595  0.29791526  0.47104864     0.08800
H757        H  0.86679451  0.32196384  0.43585245     0.08800
H758        H  0.75256409  0.31682941  0.36090187     0.08700
H759        H  0.77809673  0.33739962  0.32188794     0.08700
H760        H  0.77541175  0.35043781  0.37377870     0.05500
C761        C  0.69326303  0.18098673  0.36618643    -0.20300
C762        C  0.69809179  0.20688614  0.36258430    -0.06900
C763        C  0.68802269  0.21667446  0.39533247     0.14000
C764        C  0.67387626  0.20047591  0.43077541    -0.20300
C765        C  0.66956452  0.17482989  0.43471122    -0.06900
C766        C  0.67932857  0.16490435  0.40184490     0.14000
C767        C  0.67657893  0.13799947  0.40412405    -0.23700
H768        H  0.70093747  0.17333354  0.34138762     0.15300
H769        H  0.66659838  0.20807430  0.45633610     0.15300
C770        C  0.69309066  0.24449656  0.39459813    -0.23600
H771        H  0.66524383  0.12620959  0.37496004     0.05500
H772        H  0.66653898  0.12699108  0.43420442     0.08800
H773        H  0.69640696  0.13997133  0.40382414     0.08800
H774        H  0.68351131  0.24743872  0.36517674     0.08700
H775        H  0.71459884  0.25854326  0.39400149     0.08700
H776        H  0.68500995  0.24909106  0.42416538     0.05500
C777        C  0.70564207  0.18830297  0.14657962    -0.20300
C778        C  0.69705790  0.20314257  0.17058961    -0.06900
C779        C  0.67260643  0.20112991  0.15864709     0.14000
C780        C  0.65849603  0.18570329  0.12199303    -0.20300
C781        C  0.66807637  0.17239218  0.09678607    -0.06900
C782        C  0.69152917  0.17311960  0.10974454     0.14000
C783        C  0.70174686  0.15805165  0.08437217    -0.23700
H784        H  0.72400204  0.18926899  0.15560071     0.15300
H785        H  0.64032589  0.18482634  0.11178478     0.15300
C786        C  0.66101498  0.21505043  0.18382160    -0.23600
H787        H  0.72008832  0.16030268  0.09937545     0.05500
H788        H  0.70609496  0.16524276  0.04989580     0.08800
H789        H  0.68673634  0.13682469  0.08405588     0.08800
H790        H  0.67351040  0.23663743  0.18007971     0.08700
H791        H  0.65923450  0.20964332  0.21924647     0.08700
H792        H  0.64105649  0.20960275  0.17143033     0.05500
O793        O  0.78004097  0.26559520  0.72354618    -0.74400
O794        O  0.73261684  0.22182399  0.81318642    -0.74400
O795        O  0.73448549  0.21869943  0.72398656    -0.74500
O796        O  0.77797992  0.26856226  0.81255906    -0.74500
O797        O  0.75502458  0.28917599  0.80590457    -0.74500
O798        O  0.71180998  0.23954877  0.71715940    -0.74500
O799        O  0.70971782  0.24238493  0.80628115    -0.74400
O800        O  0.75730886  0.28643454  0.71697030    -0.74500
Ni801      Ni  0.75708863  0.24292638  0.76853563     1.25400
Ni802      Ni  0.73265518  0.26510488  0.76126530     1.25400
C803        C  0.77665068  0.28345570  0.70564485     0.87800
C804        C  0.71340972  0.22495085  0.82503526     0.87700
C805        C  0.71582630  0.22083973  0.70590580     0.87700
C806        C  0.77347406  0.28690952  0.82432505     0.87900
C807        C  0.48764388  0.87108928  0.47535571     0.03100
C808        C  0.49519727  0.86274089  0.93660196    -0.13000
C809        C  0.49263084  0.83764306  0.93448132     0.00600
C810        C  0.48214955  0.82070117  0.47184716    -0.11500
C811        C  0.48158321  0.83152600  0.51269540     0.03100
C812        C  0.48403429  0.85651954  0.51422035    -0.10900
H813        H  0.49922751  0.87408963  0.90668897     0.08700
H814        H  0.48055322  0.80150589  0.47056843     0.06300
H815        H  0.48341407  0.86473680  0.54592931     0.06100
C816        C  0.37484879  0.87547498  0.00736194     0.03100
C817        C  0.36497815  0.86073511  0.96814933    -0.13000
C818        C  0.34134998  0.83660905  0.96808999     0.00600
C819        C  0.32798512  0.82663609  0.00774813    -0.11500
C820        C  0.33879122  0.83999855  0.54647485     0.03100
C821        C  0.36129363  0.86505851  0.54667199    -0.10900
H822        H  0.37585531  0.86761793  0.93776055     0.08700
H823        H  0.30982273  0.80788327  0.00782135     0.06300
H824        H  0.36845702  0.87557755  0.57766566     0.06100
C825        C  0.50551256  0.12538412  0.51112485     0.03100
C826        C  0.50071863  0.13571643  0.96924489    -0.13000
C827        C  0.50216764  0.16026058  0.97042533     0.00600
C828        C  0.50863661  0.17474463  0.51240641    -0.11500
C829        C  0.50919697  0.16292465  0.55210154     0.03100
C830        C  0.50815853  0.13854886  0.55146196    -0.10900
H831        H  0.49730854  0.12556568  0.93791287     0.08700
H832        H  0.51017442  0.19392536  0.51282736     0.06300
H833        H  0.50953960  0.13001594  0.58233580     0.06100
C834        C  0.62139977  0.12278418  0.51388278     0.03100
C835        C  0.63539592  0.13258453  0.55397971    -0.13000
C836        C  0.65918918  0.15655241  0.55526938     0.00600
C837        C  0.66999012  0.17005508  0.51604123    -0.11500
C838        C  0.65286412  0.16368189  0.97483529     0.03100
C839        C  0.62873649  0.14001765  0.97370954    -0.10900
H840        H  0.62767442  0.12185133  0.58438138     0.08700
H841        H  0.68842004  0.18855452  0.51705622     0.06300
H842        H  0.61896263  0.13243152  0.94222407     0.06100
C843        C  0.49770304  0.97420627  0.50219011     0.02300
C844        C  0.47400230  0.97498404  0.50697216     0.02300
C845        C  0.47504324  0.99938486  0.50810798    -0.18200
C846        C  0.49906680  0.02315184  0.50830682     0.02300
C847        C  0.52292056  0.02250630  0.50619971     0.02300
C848        C  0.52178853  0.99808058  0.50236625    -0.18200
H849        H  0.53988148  0.99775297  0.49894378     0.04300
H850        H  0.45682094  0.99980402  0.50845619     0.04300
O851        O  0.21969339  0.48531984  0.79988120    -0.74400
O852        O  0.26725436  0.49002156  0.71021852    -0.74400
O853        O  0.26609365  0.48593375  0.79922271    -0.74500
O854        O  0.22092025  0.48976277  0.71059819    -0.74500
O855        O  0.24282152  0.53339571  0.71663493    -0.74500
O856        O  0.28738711  0.52957414  0.80571758    -0.74500
O857        O  0.28921316  0.53364801  0.71682635    -0.74400
O858        O  0.24093040  0.52884874  0.80629603    -0.74500
Ni859      Ni  0.24267970  0.48622338  0.75471994     1.25400
Ni860      Ni  0.26578488  0.53292568  0.76154158     1.25400
C861        C  0.22270105  0.50613022  0.81878047     0.87800
C862        C  0.28647636  0.51248208  0.69947835     0.87700
C863        C  0.28435796  0.50721303  0.81681092     0.87700
C864        C  0.22479672  0.51231618  0.69835920     0.87900
O865        O  0.28578661  0.75859984  0.71042063    -0.74400
O866        O  0.24123624  0.71094493  0.79933700    -0.74400
O867        O  0.24045643  0.71179950  0.70964230    -0.74500
O868        O  0.28659847  0.75773884  0.80006031    -0.74500
O869        O  0.26372822  0.77861666  0.80163951    -0.74500
O870        O  0.21755316  0.73251370  0.71158366    -0.74500
O871        O  0.21836643  0.73177912  0.80111502    -0.74400
O872        O  0.26279349  0.77927849  0.71220469    -0.74500
Ni873      Ni  0.26433355  0.73402474  0.75480230     1.25400
Ni874      Ni  0.23979674  0.75626719  0.75673168     1.25400
C875        C  0.28160617  0.77675862  0.69633397     0.87800
C876        C  0.22243256  0.71353808  0.81509542     0.87700
C877        C  0.22147740  0.71469796  0.69514915     0.87700
C878        C  0.28276003  0.77578600  0.81583928     0.87900
C879        C  0.12537633  0.50634024  0.50485505     0.03100
C880        C  0.13920149  0.51053421  0.54521620    -0.13000
C881        C  0.16298975  0.51019832  0.54709126     0.00600
C882        C  0.17389399  0.50743939  0.50789031    -0.11500
C883        C  0.16200057  0.50270525  0.97100170     0.03100
C884        C  0.13701735  0.50030581  0.97017287    -0.10900
H885        H  0.13154078  0.51414116  0.57518084     0.08700
H886        H  0.19264645  0.50800021  0.50878713     0.06300
H887        H  0.12685737  0.49708943  0.93881232     0.06100
C888        C  0.12648808  0.61756350  0.50300586     0.03100
C889        C  0.13937004  0.62805395  0.96454272    -0.13000
C890        C  0.16371101  0.65155156  0.96500205     0.00600
C891        C  0.17735446  0.66169225  0.50227421    -0.11500
C892        C  0.16376374  0.65317310  0.54204078     0.03100
C893        C  0.13799141  0.63192607  0.54204369    -0.10900
H894        H  0.13140669  0.61804837  0.93338268     0.08700
H895        H  0.19690106  0.67884293  0.50207782     0.06300
H896        H  0.12723124  0.62616239  0.57273729     0.06100
C897        C  0.87245120  0.37904784  0.01716676     0.03100
C898        C  0.85842711  0.36985681  0.97711196    -0.13000
C899        C  0.83399030  0.34662830  0.97573120     0.00600
C900        C  0.82278197  0.33331736  0.01497091    -0.11500
C901        C  0.83914421  0.34201076  0.55647463     0.03100
C902        C  0.86324026  0.36574035  0.55669204    -0.10900
H903        H  0.86670444  0.38055031  0.94684344     0.08700
H904        H  0.80357783  0.31568983  0.01413719     0.06300
H905        H  0.87397063  0.37281427  0.58747220     0.06100
C906        C  0.87466518  0.49401895  0.98770232     0.03100
C907        C  0.86066663  0.49503231  0.52616918    -0.13000
C908        C  0.83664151  0.49470830  0.52547768     0.00600
C909        C  0.82584684  0.49216064  0.98689190    -0.11500
C910        C  0.83950262  0.49609614  0.94743259     0.03100
C911        C  0.86409034  0.49746722  0.94797662    -0.10900
H912        H  0.86841591  0.49267397  0.55733206     0.08700
H913        H  0.80687697  0.49113771  0.98660185     0.06300
H914        H  0.87509408  0.50184395  0.91767495     0.06100
C915        C  0.02281061  0.50004879  0.50400440     0.02300
C916        C  0.02295007  0.52422919  0.50077787     0.02300
C917        C  0.99899681  0.52410014  0.49851106    -0.18200
C918        C  0.97475532  0.50060658  0.50051427     0.02300
C919        C  0.97455940  0.47644187  0.50498729     0.02300
C920        C  0.99859215  0.47657593  0.50656617    -0.18200
H921        H  0.99843201  0.45817875  0.50976244     0.04300
H922        H  0.99923532  0.54252994  0.49532472     0.04300
O923        O  0.53101110  0.24252537  0.80884823    -0.74400
O924        O  0.53548436  0.29007372  0.71834463    -0.74400
O925        O  0.53251179  0.28935364  0.80773029    -0.74500
O926        O  0.53412483  0.24334472  0.71973463    -0.74500
O927        O  0.49052869  0.22252840  0.71478208    -0.74500
O928        O  0.48885905  0.26854364  0.80312448    -0.74500
O929        O  0.49182268  0.26921459  0.71369092    -0.74400
O930        O  0.48733510  0.22168139  0.80403185    -0.74500
Ni931      Ni  0.53482200  0.26707477  0.76385668     1.25400
Ni932      Ni  0.48808274  0.24476508  0.75874659     1.25400
C933        C  0.50845025  0.22416202  0.82131991     0.87800
C934        C  0.51437789  0.28731402  0.70056807     0.87700
C935        C  0.51047560  0.28655444  0.82027009     0.87700
C936        C  0.51266582  0.22541435  0.70230432     0.87900
O937        O  0.73310701  0.51318894  0.69111379    -0.74400
O938        O  0.78105813  0.51556484  0.77998800    -0.74400
O939        O  0.77896535  0.51288903  0.69054274    -0.74500
O940        O  0.73516856  0.51589153  0.78052318    -0.74500
O941        O  0.71328603  0.47214981  0.78414244    -0.74500
O942        O  0.75690677  0.46926669  0.69330830    -0.74500
O943        O  0.75921900  0.47187121  0.78275994    -0.74400
O944        O  0.71094069  0.46956119  0.69448917    -0.74500
Ni945      Ni  0.75784202  0.51592238  0.73542589     1.25400
Ni946      Ni  0.73428036  0.46915157  0.73878613     1.25400
C947        C  0.71426940  0.49097288  0.67756101     0.87800
C948        C  0.77805363  0.49408934  0.79617043     0.87700
C949        C  0.77506344  0.49061020  0.67653327     0.87700
C950        C  0.71746228  0.49454734  0.79797337     0.87900
O951        O  0.46912311  0.71010953  0.68120808    -0.74400
O952        O  0.46884324  0.75724733  0.76889325    -0.74400
O953        O  0.46663603  0.75500625  0.67919608    -0.74500
O954        O  0.47115316  0.71228358  0.77064700    -0.74500
O955        O  0.51481236  0.73577017  0.76806679    -0.74500
O956        O  0.51031168  0.77863965  0.67712762    -0.74500
O957        O  0.51248491  0.78063993  0.76665389    -0.74400
O958        O  0.51273498  0.73375800  0.67879211    -0.74500
Ni959      Ni  0.46738077  0.73284065  0.72503975     1.25400
Ni960      Ni  0.51411677  0.75803416  0.72254798     1.25400
C961        C  0.49104980  0.71407806  0.66550556     0.87800
C962        C  0.49063200  0.77665554  0.78266960     0.87700
C963        C  0.48773806  0.77393403  0.66301467     0.87700
C964        C  0.49378355  0.71710996  0.78479265     0.87900
C965        C  0.38077598  0.50787429  0.00900998     0.03100
C966        C  0.36803752  0.50723076  0.96897662    -0.13000
C967        C  0.34465790  0.50826098  0.96888954     0.00600
C968        C  0.33480694  0.51156079  0.00888304    -0.11500
C969        C  0.34866412  0.51328656  0.55227474     0.03100
C970        C  0.37094613  0.51019605  0.55333681    -0.10900
H971        H  0.37596332  0.50531840  0.93789504     0.08700
H972        H  0.31695148  0.51273881  0.00883175     0.06300
H973        H  0.37894406  0.50886738  0.58486052     0.06100
C974        C  0.49681392  0.62039678  0.97181439     0.03100
C975        C  0.49266644  0.62959406  0.51580714    -0.13000
C976        C  0.49039942  0.65224290  0.51654954     0.00600
C977        C  0.49380471  0.66661590  0.97450526    -0.11500
C978        C  0.49454130  0.65582101  0.93370472     0.03100
C979        C  0.49634695  0.63288870  0.93242869    -0.10900
H980        H  0.49114826  0.61949034  0.54643696     0.08700
H981        H  0.49316196  0.68474190  0.97559749     0.06300
H982        H  0.49796802  0.62512663  0.90088644     0.06100
C983        C  0.50587341  0.38034757  0.01186064     0.03100
C984        C  0.51052754  0.36987041  0.55035709    -0.13000
C985        C  0.51261532  0.34707717  0.55017318     0.00600
C986        C  0.50882620  0.33405695  0.01194949    -0.11500
C987        C  0.50754478  0.34509275  0.97179918     0.03100
C988        C  0.50659815  0.36848683  0.97177995    -0.10900
H989        H  0.50906691  0.37800583  0.58152650     0.08700
H990        H  0.51007129  0.31624628  0.01204444     0.06300
H991        H  0.50601591  0.37721439  0.94060238     0.06100
C992        C  0.61886520  0.49435367  0.98302259     0.03100
C993        C  0.63262467  0.49621039  0.94410819    -0.13000
C994        C  0.65503319  0.49346612  0.94532302     0.00600
C995        C  0.66436600  0.49007487  0.98606440    -0.07300
C996        C  0.65685454  0.49607473  0.52559465     0.03100
C997        C  0.63341253  0.49694189  0.52436040    -0.10900
H998        H  0.62610160  0.50021350  0.91305880     0.08700
H999        H  0.68214676  0.48877251  0.98746593     0.06300
H1000       H  0.62269285  0.49424734  0.55462867     0.06100
C1001       C  0.47533257  0.50007696  0.99153190     0.02300
C1002       C  0.49830853  0.52239622  0.97547964     0.02300
C1003       C  0.52121570  0.52086314  0.96952785    -0.18200
C1004       C  0.52184841  0.49771514  0.97836450     0.02300
C1005       C  0.49884533  0.47523706  0.99408225     0.02300
C1006       C  0.47620515  0.47712312  0.00162402    -0.18200
H1007       H  0.45900729  0.46059522  0.01575924     0.04300
H1008       H  0.53895139  0.53806318  0.95823441     0.04300
C1009       C  0.57886145  0.48477013  0.45241661    -0.20300
C1010       C  0.59470011  0.49652685  0.98074136    -0.06900
C1011       C  0.59177834  0.51521642  0.00591711     0.14000
C1012       C  0.56808137  0.51560530  0.00316298    -0.20300
C1013       C  0.54754157  0.49846693  0.97486071    -0.06900
C1014       C  0.55487924  0.48454100  0.44898467     0.14000
C1015       C  0.53571726  0.46761144  0.41360676    -0.23700
H1016       H  0.58218856  0.47183361  0.43125480     0.15300
H1017       H  0.56531879  0.52905399  0.02394113     0.15300
C1018       C  0.61381844  0.53552867  0.03430872    -0.23600
H1019       H  0.54545494  0.47319230  0.38098344     0.05500
H1020       H  0.51511532  0.46846132  0.90905031     0.08800
H1021       H  0.52931560  0.44664766  0.41984077     0.08800
H1022       H  0.63186939  0.54645347  0.01428295     0.08700
H1023       H  0.61991539  0.53044838  0.56598527     0.08700
H1024       H  0.60885242  0.55003442  0.04804634     0.05500
C1025       C  0.48315962  0.40387437  0.98522336    -0.20300
C1026       C  0.50328038  0.40433134  0.01118477    -0.06900
C1027       C  0.52404010  0.42888430  0.53370199     0.14000
C1028       C  0.52007082  0.45056472  0.53148682    -0.20300
C1029       C  0.49822945  0.44979951  0.00285683    -0.06900
C1030       C  0.48061169  0.42626151  0.98015294     0.14000
C1031       C  0.45982797  0.42470450  0.94876478    -0.23700
H1032       H  0.46963840  0.38591300  0.96786751     0.15300
H1033       H  0.53306445  0.46825075  0.54992404     0.15300
C1034       C  0.54793434  0.43203077  0.55816967    -0.23600
H1035       H  0.44971406  0.40561617  0.93083582     0.05500
H1036       H  0.46880794  0.44048472  0.92376050     0.08800
H1037       H  0.44456442  0.42644621  0.96723122     0.08800
H1038       H  0.55978472  0.42703553  0.53596195     0.08700
H1039       H  0.54212968  0.41932753  0.58767933     0.08700
H1040       H  0.56079787  0.45257473  0.56977652     0.05500
C1041       C  0.48178749  0.57531723  0.94253665    -0.20300
C1042       C  0.49903825  0.59621236  0.97017003    -0.06900
C1043       C  0.51768711  0.59336686  0.50108304     0.14000
C1044       C  0.51773985  0.56948752  0.50093429    -0.20300
C1045       C  0.49976926  0.54831778  0.96891257    -0.06900
C1046       C  0.48257594  0.55183516  0.94035423     0.14000
C1047       C  0.46534589  0.53162004  0.90650958    -0.23700
H1048       H  0.46761004  0.57734650  0.92226726     0.15300
H1049       H  0.53112686  0.56710461  0.52272253     0.15300
C1050       C  0.53842876  0.61602081  0.52790477    -0.23600
H1051       H  0.47014368  0.54057632  0.87318823     0.05500
H1052       H  0.44600101  0.52472012  0.41567172     0.08800
H1053       H  0.46824119  0.51437672  0.90583748     0.08800
H1054       H  0.52954740  0.62091122  0.55579027     0.08700
H1055       H  0.55079556  0.63381698  0.99517888     0.08700
H1056       H  0.55302475  0.61128494  0.54226883     0.05500
C1057       C  0.40412878  0.48500749  0.98237099    -0.20300
C1058       C  0.40471140  0.50507404  0.00848794    -0.06900
C1059       C  0.42989723  0.52257110  0.53601339     0.14000
C1060       C  0.45182990  0.51909285  0.53192249    -0.20300
C1061       C  0.45030823  0.50039148  0.99858471    -0.06900
C1062       C  0.42669373  0.48300444  0.97581047     0.14000
C1063       C  0.42485620  0.46342090  0.94171994    -0.23700
H1064       H  0.38612645  0.47145201  0.96504600     0.15300
H1065       H  0.46986479  0.53225061  0.54947966     0.15300
C1066       C  0.43317554  0.54622201  0.56113172    -0.23600
H1067       H  0.41727959  0.46681393  0.91018061     0.05500
H1068       H  0.41107030  0.44317070  0.95313053     0.08800
H1069       H  0.44403242  0.46509770  0.93424754     0.08800
H1070       H  0.42113541  0.54011367  0.59138133     0.08700
H1071       H  0.42738700  0.55789597  0.53983038     0.08700
H1072       H  0.45393051  0.55932684  0.57165052     0.05500
C1073       C  0.47407998  0.67537437  0.82746735    -0.20300
C1074       C  0.49541048  0.70095400  0.82120792    -0.06900
C1075       C  0.51703242  0.71082504  0.85115793     0.14000
C1076       C  0.51645937  0.69510715  0.88643552    -0.20300
C1077       C  0.49501016  0.66986174  0.89288517    -0.06900
C1078       C  0.47359975  0.65974995  0.86295971     0.14000
C1079       C  0.44980778  0.63297809  0.86944336    -0.23700
H1080       H  0.45748028  0.66764814  0.80479761     0.15300
H1081       H  0.53267057  0.70277592  0.90993494     0.15300
C1082       C  0.54033545  0.73823942  0.84774601    -0.23600
H1083       H  0.43448895  0.62845023  0.84378839     0.05500
H1084       H  0.44104375  0.63209835  0.90219717     0.08800
H1085       H  0.45553804  0.61764508  0.86758321     0.08800
H1086       H  0.53361031  0.75286311  0.84855468     0.08700
H1087       H  0.55112163  0.74022483  0.81675398     0.08700
H1088       H  0.55449269  0.74291096  0.87549201     0.05500
C1089       C  0.46722541  0.67957577  0.60808970    -0.20300
C1090       C  0.49100747  0.69603098  0.63064570    -0.06900
C1091       C  0.51390122  0.69508059  0.61849133     0.14000
C1092       C  0.51263342  0.67926847  0.58262225    -0.20300
C1093       C  0.48927978  0.66440761  0.55861483    -0.06900
C1094       C  0.46612698  0.66385388  0.57230102     0.14000
C1095       C  0.44028824  0.64675573  0.54896750    -0.23700
H1096       H  0.44944590  0.67956546  0.61749542     0.15300
H1097       H  0.53025504  0.67929025  0.57203827     0.15300
C1098       C  0.53980470  0.71049513  0.64267644    -0.23600
H1099       H  0.42390986  0.64800753  0.56468816     0.05500
H1100       H  0.43554024  0.62594169  0.54988409     0.08800
H1101       H  0.44150816  0.65299547  0.51416357     0.08800
H1102       H  0.53708639  0.70566691  0.67836501     0.08700
H1103       H  0.54780304  0.73187703  0.63793771     0.08700
H1104       H  0.55477941  0.70582795  0.63028346     0.05500
C1105       C  0.69615922  0.51374299  0.63241282    -0.20300
C1106       C  0.69669614  0.49047999  0.64125465    -0.06900
C1107       C  0.68197927  0.46828208  0.61334656     0.14000
C1108       C  0.66812338  0.47038345  0.57702027    -0.20300
C1109       C  0.66843784  0.49387557  0.56776346    -0.06900
C1110       C  0.68237519  0.51573770  0.59597052     0.14000
C1111       C  0.68366509  0.54153378  0.58657063    -0.23700
H1112       H  0.70713488  0.53078046  0.65353046     0.15300
H1113       H  0.65755824  0.45380720  0.55478104     0.15300
C1114       C  0.68150276  0.44262170  0.62002085    -0.23600
H1115       H  0.69600726  0.55685113  0.61126831     0.05500
H1116       H  0.66361443  0.53890615  0.58749038     0.08800
H1117       H  0.69223128  0.54869846  0.55346032     0.08800
H1118       H  0.67252244  0.43404663  0.65230766     0.08700
H1119       H  0.70180586  0.44586824  0.61863002     0.08700
H1120       H  0.66968106  0.42793804  0.59411423     0.05500
C1121       C  0.67450638  0.47761291  0.83487139    -0.20300
C1122       C  0.70165462  0.49564943  0.83479462    -0.06900
C1123       C  0.71302585  0.51365960  0.87039642     0.14000
C1124       C  0.69680292  0.51357680  0.90413392    -0.20300
C1125       C  0.66980711  0.49517039  0.90478416    -0.06900
C1126       C  0.65844647  0.47697311  0.86957555     0.14000
C1127       C  0.62978007  0.45605404  0.86936092    -0.23700
H1128       H  0.66586603  0.46369657  0.80781778     0.15300
H1129       H  0.70558552  0.52722390  0.93153850     0.15300
C1130       C  0.74225307  0.53199278  0.87611918    -0.23600
H1131       H  0.62472796  0.44249210  0.84073197     0.05500
H1132       H  0.61722050  0.46516045  0.86713490     0.08800
H1133       H  0.62510361  0.44419544  0.89993709     0.08800
H1134       H  0.75438231  0.52891151  0.85176634     0.08700
H1135       H  0.74858365  0.52881495  0.90907082     0.08700
H1136       H  0.74666505  0.55267204  0.87415499     0.05500
C1137       C  0.48640529  0.29396322  0.88072468    -0.20300
C1138       C  0.50969606  0.30351529  0.85626231    -0.06900
C1139       C  0.53155551  0.32840322  0.86783729     0.14000
C1140       C  0.52985519  0.34213599  0.90457001    -0.20300
C1141       C  0.50708333  0.33170628  0.93012249    -0.06900
C1142       C  0.48488905  0.30766914  0.91750865     0.14000
C1143       C  0.45957503  0.29644915  0.94291550    -0.23700
H1144       H  0.46945769  0.27520252  0.87196980     0.15300
H1145       H  0.54670027  0.36075264  0.91434787     0.15300
C1146       C  0.55670917  0.34089649  0.84183736    -0.23600
H1147       H  0.44389383  0.27791227  0.92780068     0.05500
H1148       H  0.45252784  0.31081717  0.94342889     0.08800
H1149       H  0.46273909  0.29209037  0.97729763     0.08800
H1150       H  0.55234593  0.34231646  0.80655258     0.08700
H1151       H  0.56671342  0.32919223  0.84512585     0.08700
H1152       H  0.57071653  0.36107461  0.85385488     0.05500
C1153       C  0.49331700  0.30735414  0.65587839    -0.20300
C1154       C  0.51562403  0.30488000  0.66408937    -0.06900
C1155       C  0.53757887  0.31784969  0.63569025     0.14000
C1156       C  0.53636255  0.33247775  0.60002946    -0.20300
C1157       C  0.51387032  0.33441080  0.59162192    -0.06900
C1158       C  0.49208557  0.32173896  0.61989908     0.14000
C1159       C  0.46701265  0.32218652  0.61097059    -0.23700
H1160       H  0.47642259  0.29750688  0.67726229     0.15300
H1161       H  0.55283405  0.34194227  0.57766797     0.15300
C1162       C  0.56190423  0.31553203  0.64109686    -0.23600
H1163       H  0.45148594  0.31013247  0.63513328     0.05500
H1164       H  0.45941111  0.31419272  0.57746337     0.08800
H1165       H  0.47069112  0.34258767  0.61329849     0.08800
H1166       H  0.55651371  0.29453467  0.63978663     0.08700
H1167       H  0.57180481  0.32443399  0.67297997     0.08700
H1168       H  0.57636502  0.32593343  0.61453417     0.05500
C1169       C  0.81782759  0.47667704  0.87580221    -0.20300
C1170       C  0.82713768  0.49771612  0.90570298    -0.06900
C1171       C  0.82216353  0.51849474  0.89751341     0.14000
C1172       C  0.80681639  0.51706011  0.86073596    -0.20300
C1173       C  0.79603077  0.49522402  0.83206870    -0.06900
C1174       C  0.80224807  0.47505249  0.83914386     0.14000
C1175       C  0.79287152  0.45188708  0.80823441    -0.23700
H1176       H  0.82193561  0.46091765  0.88219302     0.15300
H1177       H  0.80252004  0.53276084  0.85522091     0.15300
C1178       C  0.83314849  0.54226926  0.92737848    -0.23600
H1179       H  0.80127718  0.43924137  0.81719635     0.05500
H1180       H  0.79897837  0.45889870  0.77399234     0.08800
H1181       H  0.77115403  0.43945965  0.80965611     0.08800
H1182       H  0.85489978  0.55159427  0.92922943     0.08700
H1183       H  0.82493150  0.53656108  0.96100260     0.08700
H1184       H  0.82827926  0.55714531  0.91506001     0.05500
C1185       C  0.80075247  0.46908187  0.57820119    -0.20300
C1186       C  0.82271729  0.49303376  0.56673959    -0.06900
C1187       C  0.82977879  0.51561075  0.59243562     0.14000
C1188       C  0.81436729  0.51384299  0.62879505    -0.20300
C1189       C  0.79171791  0.49005094  0.64000436    -0.06900
C1190       C  0.78512679  0.46716445  0.61453631     0.14000
C1191       C  0.76139628  0.44079432  0.62407588    -0.23700
H1192       H  0.79549512  0.45192394  0.55787771     0.15300
H1193       H  0.81985943  0.53143451  0.64800466     0.15300
C1194       C  0.85311573  0.54178246  0.58056910    -0.23600
H1195       H  0.75927571  0.42550202  0.60014206     0.05500
H1196       H  0.74324867  0.44217947  0.62181671     0.08800
H1197       H  0.76328482  0.43411892  0.65746103     0.08800
H1198       H  0.85037238  0.54745811  0.54684424     0.08700
H1199       H  0.87131375  0.54043134  0.58156040     0.08700
H1200       H  0.85573829  0.55757013  0.60379654     0.05500
C1201       C  0.91906173  0.51108644  0.02180063    -0.20300
C1202       C  0.90081275  0.49544849  0.98898019    -0.06900
C1203       C  0.90659290  0.48390692  0.46038385     0.14000
C1204       C  0.93149967  0.48608659  0.46338263    -0.20300
C1205       C  0.95042043  0.49824868  0.99697608    -0.06900
C1206       C  0.94333007  0.51205631  0.02705501     0.14000
C1207       C  0.96037953  0.52649905  0.06643072    -0.23700
H1208       H  0.91402374  0.52221916  0.04428936     0.15300
H1209       H  0.93632607  0.47471754  0.44107710     0.15300
C1210       C  0.88633144  0.46341041  0.42971650    -0.23600
H1211       H  0.95049189  0.53385914  0.08867116     0.05500
H1212       H  0.97900831  0.54377162  0.05582212     0.08800
H1213       H  0.96521565  0.51771992  0.58423804     0.08800
H1214       H  0.88309809  0.46986062  0.90125875     0.08700
H1215       H  0.86822534  0.45028726  0.44835591     0.08700
H1216       H  0.89354011  0.45092672  0.41476704     0.05500
C1217       C  0.91730332  0.40416875  0.98559595    -0.20300
C1218       C  0.89922706  0.40270281  0.01725247    -0.06900
C1219       C  0.90650941  0.42595528  0.54500095     0.14000
C1220       C  0.93161021  0.44839959  0.54221860    -0.20300
C1221       C  0.94992960  0.44784285  0.01133656    -0.06900
C1222       C  0.94220289  0.42666586  0.98139190     0.14000
C1223       C  0.95925494  0.42815367  0.94322800    -0.23700
H1224       H  0.91158811  0.38779639  0.96309557     0.15300
H1225       H  0.93699915  0.46464466  0.56484560     0.15300
C1226       C  0.88688907  0.42660457  0.57613849    -0.23600
H1227       H  0.94887790  0.41091016  0.92082093     0.05500
H1228       H  0.97749394  0.43363240  0.45031287     0.08800
H1229       H  0.96471429  0.44607388  0.92356608     0.08800
H1230       H  0.88256271  0.41279734  0.60379058     0.08700
H1231       H  0.86949172  0.42241167  0.05742266     0.08700
H1232       H  0.89449325  0.44643688  0.59095915     0.05500
C1233       C  0.08133109  0.58805029  0.97017175    -0.20300
C1234       C  0.09973125  0.59381438  0.50350202    -0.06900
C1235       C  0.09163420  0.57451682  0.53699335     0.14000
C1236       C  0.06548129  0.55409259  0.53776392    -0.20300
C1237       C  0.04813849  0.54978845  0.50250141    -0.06900
C1238       C  0.05650338  0.56511261  0.96857592     0.14000
C1239       C  0.03939155  0.55997394  0.92819459    -0.23700
H1240       H  0.08648515  0.60256556  0.94445168     0.15300
H1241       H  0.05924190  0.53988649  0.56425712     0.15300
C1242       C  0.11023788  0.57310822  0.57007688    -0.23600
H1243       H  0.04971845  0.57501580  0.90236444     0.05500
H1244       H  0.02190545  0.56477130  0.43560597     0.08800
H1245       H  0.03398530  0.54051226  0.91378062     0.08800
H1246       H  0.10563323  0.57700281  0.60375863     0.08700
H1247       H  0.13276057  0.58678761  0.06148399     0.08700
H1248       H  0.10781404  0.55310099  0.56926427     0.05500
C1249       C  0.08111591  0.49148086  0.53768793    -0.20300
C1250       C  0.09913271  0.50497130  0.50370631    -0.06900
C1251       C  0.09224804  0.51368980  0.97457881     0.14000
C1252       C  0.06635512  0.50889452  0.97232067    -0.20300
C1253       C  0.04794169  0.49921867  0.50320145    -0.06900
C1254       C  0.05613557  0.48931317  0.53875133     0.14000
C1255       C  0.03935277  0.47769587  0.57905131    -0.23700
H1256       H  0.08669472  0.48277691  0.56409504     0.15300
H1257       H  0.06082118  0.51743218  0.94554301     0.15300
C1258       C  0.11162618  0.53378270  0.94303038    -0.23600
H1259       H  0.04988608  0.47320032  0.60514460     0.05500
H1260       H  0.02096234  0.45527839  0.07306039     0.08800
H1261       H  0.03399456  0.49183032  0.59312820     0.08800
H1262       H  0.10739949  0.52569883  0.90892891     0.08700
H1263       H  0.13091465  0.54157089  0.44336401     0.08700
H1264       H  0.10973855  0.55168145  0.94394742     0.05500
C1265       C  0.16948399  0.68370495  0.60288218    -0.20300
C1266       C  0.17679497  0.66670004  0.58357145    -0.06900
C1267       C  0.19737895  0.66410087  0.60257835     0.14000
C1268       C  0.21096270  0.67953382  0.63936848    -0.20300
C1269       C  0.20457961  0.69759085  0.65810268    -0.06900
C1270       C  0.18302241  0.69923847  0.63981382     0.14000
C1271       C  0.17408263  0.71734759  0.65807763    -0.23700
H1272       H  0.15349929  0.68535710  0.58807163     0.15300
H1273       H  0.22701389  0.67757148  0.65301528     0.15300
C1274       C  0.20550689  0.64520098  0.58497303    -0.23600
H1275       H  0.15659638  0.71530934  0.64007685     0.05500
H1276       H  0.18997144  0.73811397  0.65482896     0.08800
H1277       H  0.16853432  0.71262638  0.69323192     0.08800
H1278       H  0.22626464  0.65631752  0.57397367     0.08700
H1279       H  0.19319357  0.63319617  0.55680923     0.08700
H1280       H  0.20384247  0.63145244  0.61152958     0.05500
C1281       C  0.21705230  0.68471852  0.87890815    -0.20300
C1282       C  0.20588850  0.69570557  0.85095642    -0.06900
C1283       C  0.17961159  0.68969171  0.85856636     0.14000
C1284       C  0.16582880  0.67384177  0.89463171    -0.20300
C1285       C  0.17756253  0.66403411  0.92357340    -0.06900
C1286       C  0.20329634  0.66901896  0.91498967     0.14000
C1287       C  0.21682501  0.65804409  0.94309928    -0.23700
H1288       H  0.23698691  0.68886614  0.87325771     0.15300
H1289       H  0.14608154  0.66993539  0.90139826     0.15300
C1290       C  0.16574826  0.69965072  0.82899302    -0.23600
H1291       H  0.23462866  0.67442778  0.95886477     0.05500
H1292       H  0.22284922  0.64652751  0.92199687     0.08800
H1293       H  0.20405819  0.64474154  0.96931530     0.08800
H1294       H  0.16617331  0.69381211  0.79426888     0.08700
H1295       H  0.17532680  0.72135246  0.83162847     0.08700
H1296       H  0.14482102  0.69145827  0.83829007     0.05500
C1297       C  0.31521326  0.53499620  0.63582351    -0.20300
C1298       C  0.30533935  0.51401704  0.66568417    -0.06900
C1299       C  0.31280498  0.49457954  0.66106834     0.14000
C1300       C  0.32764527  0.49532727  0.62440990    -0.20300
C1301       C  0.33634178  0.51558577  0.59336319    -0.06900
C1302       C  0.33094742  0.53628540  0.60022791     0.14000
C1303       C  0.34156968  0.56012333  0.57095068    -0.23700
H1304       H  0.31020279  0.55032639  0.63969672     0.15300
H1305       H  0.33217227  0.47971026  0.61972724     0.15300
C1306       C  0.30628332  0.47317287  0.69441744    -0.23600
H1307       H  0.35255382  0.57816330  0.59142364     0.05500
H1308       H  0.32501530  0.56068096  0.55402520     0.08800
H1309       H  0.35537234  0.56059590  0.54573742     0.08800
H1310       H  0.29803379  0.47588396  0.72538400     0.08700
H1311       H  0.32455913  0.47311630  0.70399443     0.08700
H1312       H  0.29224256  0.45378848  0.67961467     0.05500
C1313       C  0.28977581  0.48589979  0.88332499    -0.20300
C1314       C  0.30144532  0.50591936  0.85184574    -0.06900
C1315       C  0.32849639  0.52499095  0.85654376     0.14000
C1316       C  0.34228623  0.52489139  0.89458526    -0.20300
C1317       C  0.33011285  0.50570277  0.92721676    -0.06900
C1318       C  0.30380786  0.48531687  0.92055362     0.14000
C1319       C  0.28992441  0.46253408  0.95177954    -0.23700
H1320       H  0.26926561  0.47088073  0.87951476     0.15300
H1321       H  0.36266018  0.54012690  0.89905358     0.15300
C1322       C  0.34373695  0.54527289  0.82186197    -0.23600
H1323       H  0.28264627  0.44381168  0.93324137     0.05500
H1324       H  0.27289172  0.46292695  0.96666097     0.08800
H1325       H  0.30283075  0.46259135  0.97867943     0.08800
H1326       H  0.33251805  0.54224280  0.79079581     0.08700
H1327       H  0.36151588  0.54419257  0.81308782     0.08700
H1328       H  0.35003124  0.56521267  0.83505086     0.05500
C1329       C  0.17654599  0.48081575  0.91790828    -0.20300
C1330       C  0.17553777  0.50328973  0.92981621    -0.06900
C1331       C  0.18946226  0.52646039  0.90480064     0.14000
C1332       C  0.20388778  0.52643522  0.86809635    -0.20300
C1333       C  0.20531099  0.50402841  0.85610458    -0.06900
C1334       C  0.19132021  0.48080643  0.88167042     0.14000
C1335       C  0.19253812  0.45617433  0.87267036    -0.23700
H1336       H  0.16618068  0.46332371  0.93793295     0.15300
H1337       H  0.21455560  0.54436318  0.84923339     0.15300
C1338       C  0.19032275  0.55181258  0.91673537    -0.23600
H1339       H  0.18142170  0.44066343  0.89745087     0.05500
H1340       H  0.21328746  0.46063688  0.87398337     0.08800
H1341       H  0.18370627  0.44794400  0.83986617     0.08800
H1342       H  0.21104519  0.56739845  0.92266563     0.08700
H1343       H  0.17907949  0.55030983  0.94684787     0.08700
H1344       H  0.18207805  0.55789980  0.88906830     0.05500
C1345       C  0.20344256  0.53264371  0.59340941    -0.20300
C1346       C  0.17705431  0.51266110  0.58944894    -0.06900
C1347       C  0.16601487  0.49343916  0.62287964     0.14000
C1348       C  0.18185737  0.49432676  0.65867476    -0.20300
C1349       C  0.20847926  0.51390564  0.66202042    -0.06900
C1350       C  0.21932582  0.53350073  0.62901200     0.14000
C1351       C  0.24799254  0.55445342  0.62943084    -0.23700
H1352       H  0.21193097  0.54715498  0.56746250     0.15300
H1353       H  0.17352713  0.47929955  0.68383200     0.15300
C1354       C  0.13800420  0.47113492  0.61983707    -0.23600
H1355       H  0.25335002  0.56701925  0.59960826     0.05500
H1356       H  0.26048369  0.54518404  0.63031316     0.08800
H1357       H  0.25239420  0.56746972  0.65860756     0.08800
H1358       H  0.13492260  0.46010560  0.58850362     0.08700
H1359       H  0.12422440  0.47885778  0.62115865     0.08700
H1360       H  0.13310163  0.45712152  0.64754456     0.05500
C1361       C  0.55404523  0.06464928  0.54415806    -0.20300
C1362       C  0.54912100  0.04725536  0.50877415    -0.06900
C1363       C  0.56739107  0.05660249  0.97496048     0.14000
C1364       C  0.58984475  0.08176356  0.97781574    -0.20300
C1365       C  0.59579280  0.09733828  0.51239037    -0.06900
C1366       C  0.57601153  0.09010400  0.54479548     0.14000
C1367       C  0.57595182  0.10911448  0.57824985    -0.23700
H1368       H  0.53948680  0.05904600  0.56989772     0.15300
H1369       H  0.60505013  0.08750161  0.95325352     0.15300
C1370       C  0.56385773  0.03991366  0.93481431    -0.23600
H1371       H  0.55682881  0.10869931  0.57638437     0.05500
H1372       H  0.58572134  0.13148579  0.06862025     0.08800
H1373       H  0.57845129  0.10326723  0.61196711     0.08800
H1374       H  0.54456380  0.03384909  0.91881032     0.08700
H1375       H  0.56240732  0.02045545  0.44029270     0.08700
H1376       H  0.57939217  0.05081270  0.91000390     0.05500
C1377       C  0.53468459  0.19693616  0.60858910    -0.20300
C1378       C  0.51042492  0.17631556  0.59403965    -0.06900
C1379       C  0.48735090  0.17067102  0.61671663     0.14000
C1380       C  0.48893895  0.18642510  0.65276277    -0.20300
C1381       C  0.51309791  0.20799004  0.66667546    -0.06900
C1382       C  0.53647046  0.21283047  0.64467862     0.14000
C1383       C  0.56335898  0.23497446  0.65763751    -0.23700
H1384       H  0.55225453  0.20107133  0.59065106     0.15300
H1385       H  0.47097006  0.18214392  0.66943963     0.15300
C1386       C  0.46093493  0.14850631  0.60190655    -0.23600
H1387       H  0.57903849  0.23561399  0.63645866     0.05500
H1388       H  0.56799763  0.23232787  0.69218146     0.08800
H1389       H  0.56406239  0.25411856  0.65410698     0.08800
H1390       H  0.46094092  0.12962845  0.60343245     0.08700
H1391       H  0.45680381  0.15189925  0.56745767     0.08700
H1392       H  0.44478810  0.14680203  0.62307330     0.05500
C1393       C  0.48380697  0.19469439  0.88337311    -0.20300
C1394       C  0.50647376  0.20594812  0.85703988    -0.06900
C1395       C  0.52650052  0.19969342  0.86587482     0.14000
C1396       C  0.52381123  0.18351734  0.90186864    -0.20300
C1397       C  0.50186535  0.17364432  0.92938931    -0.06900
C1398       C  0.48133025  0.17874672  0.91953279     0.14000
C1399       C  0.45675593  0.16726398  0.94698167    -0.23700
H1400       H  0.46821763  0.19901365  0.87649109     0.15300
H1401       H  0.53937923  0.17928419  0.90961370     0.15300
C1402       C  0.55063241  0.20962473  0.83757456    -0.23600
H1403       H  0.44224380  0.17242135  0.93366086     0.05500
H1404       H  0.46160876  0.17481683  0.98133498     0.08800
H1405       H  0.44735381  0.14551067  0.94725575     0.08800
H1406       H  0.56294230  0.23128862  0.84071979     0.08700
H1407       H  0.54471817  0.20407453  0.80255625     0.08700
H1408       H  0.56306453  0.20114669  0.84764551     0.05500
C1409       C  0.51101097  0.06587111  0.97208181    -0.20300
C1410       C  0.49894436  0.04856297  0.50851428    -0.06900
C1411       C  0.48729091  0.05561969  0.54273469     0.14000
C1412       C  0.48931351  0.08049673  0.54209316    -0.20300
C1413       C  0.50442108  0.09942029  0.51027101    -0.06900
C1414       C  0.51548305  0.09163759  0.97404944     0.14000
C1415       C  0.53567753  0.11129108  0.94293746    -0.23700
H1416       H  0.52024447  0.06065130  0.94617397     0.15300
H1417       H  0.47923303  0.08526893  0.56707961     0.15300
C1418       C  0.47389180  0.03773864  0.58127648    -0.23600
H1419       H  0.55399083  0.11016178  0.94532867     0.05500
H1420       H  0.54443302  0.13333825  0.45672755     0.08800
H1421       H  0.52808712  0.10665703  0.90850915     0.08800
H1422       H  0.48738272  0.03193674  0.59693096     0.08700
H1423       H  0.45453388  0.01915965  0.06801517     0.08700
H1424       H  0.46833671  0.04758443  0.60687719     0.05500
C1425       C  0.32133690  0.83362014  0.89461757    -0.20300
C1426       C  0.32972783  0.82203308  0.92645515    -0.06900
C1427       C  0.32451458  0.79603042  0.91982983     0.14000
C1428       C  0.30971386  0.78179591  0.88288020    -0.20300
C1429       C  0.29997044  0.79280570  0.85217720    -0.06900
C1430       C  0.30646230  0.81936417  0.85759204     0.14000
C1431       C  0.29811856  0.83298472  0.82447823    -0.23700
H1432       H  0.32559283  0.85364752  0.89969883     0.15300
H1433       H  0.30522371  0.76163415  0.87867794     0.15300
C1434       C  0.33434407  0.78272060  0.95087120    -0.23600
H1435       H  0.30659089  0.85416880  0.83248908     0.05500
H1436       H  0.27640495  0.82398860  0.82427596     0.08800
H1437       H  0.30494982  0.83150007  0.79107432     0.08800
H1438       H  0.31734862  0.76536093  0.96589091     0.08700
H1439       H  0.34707844  0.79583245  0.97771054     0.08700
H1440       H  0.34617140  0.77605235  0.93217988     0.05500
C1441       C  0.33675550  0.81514330  0.61340727    -0.20300
C1442       C  0.32560207  0.82699727  0.58789021    -0.06900
C1443       C  0.30081911  0.82351589  0.59942598     0.14000
C1444       C  0.28743911  0.80758783  0.63548980    -0.20300
C1445       C  0.29795438  0.79466626  0.66028536    -0.06900
C1446       C  0.32328735  0.79890765  0.64928737     0.14000
C1447       C  0.33646407  0.78657148  0.67478376    -0.23700
H1448       H  0.35574886  0.81784366  0.60407625     0.15300
H1449       H  0.26821408  0.80474590  0.64344915     0.15300
C1450       C  0.28782120  0.83611361  0.57416369    -0.23600
H1451       H  0.35672521  0.79338031  0.66293168     0.05500
H1452       H  0.32518980  0.76489243  0.67073489     0.08800
H1453       H  0.33787071  0.79192044  0.71026033     0.08800
H1454       H  0.26888345  0.82059974  0.55988335     0.08700
H1455       H  0.30009147  0.84881745  0.54693742     0.08700
H1456       H  0.28385022  0.84852850  0.59692221     0.05500
C1457       C  0.41915154  0.90609722  0.03931154    -0.20300
C1458       C  0.39979480  0.90136368  0.00732270    -0.06900
C1459       C  0.40357146  0.92317937  0.47850838     0.14000
C1460       C  0.42804960  0.94655696  0.47921739    -0.20300
C1461       C  0.44773552  0.95058759  0.51002726    -0.06900
C1462       C  0.44271562  0.93025137  0.04193517     0.14000
C1463       C  0.46039340  0.93486657  0.08119719    -0.23700
H1464       H  0.41562413  0.89102020  0.06328870     0.15300
H1465       H  0.43191376  0.96178999  0.45538281     0.15300
C1466       C  0.38222470  0.92149650  0.44828517    -0.23600
H1467       H  0.44893993  0.93122873  0.11197696     0.05500
H1468       H  0.47644260  0.95603144  0.58355791     0.08800
H1469       H  0.46822293  0.92115071  0.07993732     0.08800
H1470       H  0.36419821  0.91601510  0.46755932     0.08700
H1471       H  0.37863610  0.90541499  0.92036987     0.08700
H1472       H  0.38821852  0.94063339  0.43218741     0.05500
C1473       C  0.50254805  0.82987317  0.58289299    -0.20300
C1474       C  0.48097722  0.81756954  0.55384931    -0.06900
C1475       C  0.46086506  0.79156280  0.56257120     0.14000
C1476       C  0.46359408  0.77812513  0.59863742    -0.20300
C1477       C  0.48577381  0.78995041  0.62669539    -0.06900
C1478       C  0.50528619  0.81648739  0.61912317     0.14000
C1479       C  0.52893362  0.83107726  0.64904482    -0.23700
H1480       H  0.51787760  0.84985614  0.57620405     0.15300
H1481       H  0.44831609  0.75799394  0.60440935     0.15300
C1482       C  0.43611555  0.77747687  0.53496439    -0.23600
H1483       H  0.54100613  0.85207990  0.63971400     0.05500
H1484       H  0.54178349  0.82228087  0.64688895     0.08800
H1485       H  0.52245075  0.83035130  0.68361277     0.08800
H1486       H  0.43517128  0.76001672  0.51893673     0.08700
H1487       H  0.43477406  0.79005550  0.50905002     0.08700
H1488       H  0.41871073  0.77086020  0.55648989     0.05500
C1489       C  0.47028165  0.81193315  0.86703844    -0.20300
C1490       C  0.49346359  0.82555598  0.89203909    -0.06900
C1491       C  0.51598084  0.82451021  0.87940007     0.14000
C1492       C  0.51457892  0.80915144  0.84280666    -0.20300
C1493       C  0.49100603  0.79429060  0.81869306    -0.06900
C1494       C  0.46863979  0.79623788  0.83063784     0.14000
C1495       C  0.44291658  0.78196402  0.80564049    -0.23700
H1496       H  0.45304701  0.81278695  0.87719687     0.15300
H1497       H  0.53188321  0.80807787  0.83404277     0.15300
C1498       C  0.54139924  0.83929837  0.90504989    -0.23600
H1499       H  0.42832925  0.78715791  0.81809296     0.05500
H1500       H  0.43417672  0.76041887  0.80946765     0.08800
H1501       H  0.44615919  0.78729148  0.77017510     0.08800
H1502       H  0.53854476  0.83211727  0.93955222     0.08700
H1503       H  0.54794859  0.86059900  0.90522572     0.08700
H1504       H  0.55726840  0.83673192  0.89039639     0.05500
C1505       C  0.48292858  0.93219599  0.96176504    -0.20300
C1506       C  0.49732259  0.94880806  0.49367460    -0.06900
C1507       C  0.51181413  0.94019695  0.51951549     0.14000
C1508       C  0.50894475  0.91533280  0.51114367    -0.20300
C1509       C  0.49144082  0.89821866  0.47874588    -0.06900
C1510       C  0.48022878  0.90725122  0.95539365     0.14000
C1511       C  0.45931586  0.88844526  0.92366873    -0.23700
H1512       H  0.47150945  0.93797604  0.94122769     0.15300
H1513       H  0.52019740  0.90893692  0.53079707     0.15300
C1514       C  0.52942080  0.95623122  0.55740796    -0.23600
H1515       H  0.44693490  0.89646103  0.91105562     0.05500
H1516       H  0.44174006  0.87006234  0.43763475     0.08800
H1517       H  0.46830748  0.88467929  0.89463808     0.08800
H1518       H  0.51890107  0.96272237  0.57977409     0.08700
H1519       H  0.54911668  0.97603520  0.04729316     0.08700
H1520       H  0.53598348  0.94469599  0.57741738     0.05500
C1521       C  0.80723906  0.28967522  0.64448492    -0.20300
C1522       C  0.79492910  0.30020684  0.67048062    -0.06900
C1523       C  0.80013062  0.32610634  0.66170337     0.14000
C1524       C  0.81594672  0.33986373  0.62562506    -0.20300
C1525       C  0.82659948  0.32847196  0.59804980    -0.06900
C1526       C  0.82289799  0.30343086  0.60834242     0.14000
C1527       C  0.83545072  0.29119674  0.58125243    -0.23700
H1528       H  0.80386988  0.27014534  0.65147780     0.15300
H1529       H  0.81920815  0.35927290  0.61780254     0.15300
C1530       C  0.78945331  0.33962141  0.69021940    -0.23600
H1531       H  0.83158529  0.27211493  0.59514877     0.05500
H1532       H  0.85707876  0.30458414  0.58047731     0.08800
H1533       H  0.82746899  0.28748847  0.54711988     0.08800
H1534       H  0.79519200  0.33954807  0.72520261     0.08700
H1535       H  0.76771863  0.32957330  0.68708587     0.08700
H1536       H  0.79724751  0.36040813  0.68036268     0.05500
C1537       C  0.81534397  0.30966287  0.86685866    -0.20300
C1538       C  0.78972905  0.30528485  0.86018547    -0.06900
C1539       C  0.77979724  0.31691195  0.88980023     0.14000
C1540       C  0.79532816  0.33154757  0.92600215    -0.20300
C1541       C  0.82045896  0.33498319  0.93334540    -0.06900
C1542       C  0.83078731  0.32427577  0.90304982     0.14000
C1543       C  0.85749168  0.32695712  0.91003362    -0.23700
H1544       H  0.82312710  0.30101033  0.84418838     0.15300
H1545       H  0.78750996  0.33966936  0.94967082     0.15300
C1546       C  0.75245514  0.31297163  0.88513892    -0.23600
H1547       H  0.86190654  0.31627424  0.88429702     0.05500
H1548       H  0.85830098  0.31876904  0.94264405     0.08800
H1549       H  0.87300890  0.34794551  0.90861859     0.08800
H1550       H  0.73771503  0.29166248  0.88562420     0.08700
H1551       H  0.75071061  0.32178130  0.85382175     0.08700
H1552       H  0.74774415  0.32251901  0.91246491     0.05500
C1553       C  0.70009437  0.18849771  0.87886529    -0.20300
C1554       C  0.69580465  0.20827703  0.86137404    -0.06900
C1555       C  0.67565394  0.21189539  0.88020841     0.14000
C1556       C  0.66118279  0.19622881  0.91608435    -0.20300
C1557       C  0.66620710  0.17715796  0.93378149    -0.06900
C1558       C  0.68572938  0.17306824  0.91470828     0.14000
C1559       C  0.69226181  0.15287216  0.93180625    -0.23700
H1560       H  0.71516068  0.18515962  0.86502093     0.15300
H1561       H  0.64628077  0.19933130  0.93130263     0.15300
C1562       C  0.66939987  0.23240782  0.86385304    -0.23600
H1563       H  0.68945466  0.13882083  0.90491978     0.05500
H1564       H  0.67982660  0.14136743  0.95984183     0.08800
H1565       H  0.71311812  0.16283611  0.94298120     0.08800
H1566       H  0.66306686  0.22854597  0.82871744     0.08700
H1567       H  0.68692940  0.25228734  0.86764016     0.08700
H1568       H  0.65317145  0.23226502  0.88272276     0.05500
C1569       C  0.70984124  0.18862716  0.64699081    -0.20300
C1570       C  0.69934544  0.20190446  0.67058224    -0.06900
C1571       C  0.67382699  0.19719507  0.65897004     0.14000
C1572       C  0.66049899  0.18083813  0.62273844    -0.20300
C1573       C  0.67190331  0.16917692  0.59766416    -0.06900
C1574       C  0.69648887  0.17246021  0.61059461     0.14000
C1575       C  0.70864595  0.15897522  0.58586180    -0.23700
H1576       H  0.72905246  0.19161883  0.65599240     0.15300
H1577       H  0.64148175  0.17800412  0.61266190     0.15300
C1578       C  0.66027282  0.20911047  0.68427958    -0.23600
H1579       H  0.72760454  0.16304068  0.60104532     0.05500
H1580       H  0.71250301  0.16589637  0.55121915     0.08800
H1581       H  0.69504513  0.13739516  0.58608597     0.08800
H1582       H  0.67088079  0.23074817  0.68003325     0.08700
H1583       H  0.65942515  0.20416232  0.71981600     0.08700
H1584       H  0.63976846  0.20157690  0.67242563     0.05500
loop_ 
_geom_bond_atom_site_label_1 
_geom_bond_atom_site_label_2 
_geom_bond_distance 
_geom_bond_site_symmetry_2 
_ccdc_geom_bond_type 
O1           Ni9   1.919       .  S
O1           C11   1.282       .  A
O2           Ni9   1.919       .  S
O2           C12   1.282       .  A
O3           Ni9   1.924       .  S
O3           C13   1.283       .  A
O4           Ni9   1.924       .  S
O4           C14   1.284       .  A
O5          Ni10   1.912       .  S
O5           C14   1.279       .  A
O6          Ni10   1.914       .  S
O6           C13   1.280       .  A
O7          Ni10   1.918       .  S
O7           C12   1.281       .  A
O8          Ni10   1.917       .  S
O8           C11   1.281       .  A
Ni9         Ni10   2.381       .  S
C11         C730   1.487       .  S
C12         C762   1.488       .  S
C13         C778   1.494       .  S
C14         C746   1.497       .  S
C15         C717   1.498       .  S
C15          C20   1.410   1_556  A
C15         C808   1.413       .  A
C16          C17   1.408       .  A
C16         C807   1.413       .  A
C16          H21   1.080       .  S
C17         C698   1.485       .  S
C17         C810   1.400       .  A
C18          C19   1.398   1_556  A
C18         C809   1.399       .  A
C18          H22   1.085       .  S
C19         C682   1.479       .  S
C19          C20   1.402       .  A
C20          H23   1.084       .  S
C24         C666   1.492       .  S
C24          C25   1.408       .  A
C24         C821   1.411       .  A
C25          C26   1.402       .  A
C25          H30   1.082       .  S
C26         C634   1.478       .  S
C26          C27   1.399       .  A
C27         C820   1.398       .  A
C27          H31   1.085       .  S
C28         C650   1.481       .  S
C28          C29   1.404       .  A
C28         C819   1.399       .  A
C29         C816   1.411       .  A
C29          H32   1.083       .  S
C33         C621   1.495       .  S
C33          C38   1.412       .  A
C33         C826   1.410   1_554  A
C34          C35   1.400       .  A
C34         C825   1.410       .  A
C34          H39   1.083       .  S
C35         C605   1.476       .  S
C35         C828   1.397       .  A
C36          C37   1.396       .  A
C36         C827   1.397   1_554  A
C36          H40   1.085       .  S
C37         C586   1.476       .  S
C37          C38   1.402       .  A
C38          H41   1.083       .  S
C42         C573   1.498       .  S
C42          C43   1.412       .  A
C42         C839   1.412   1_554  A
C43          C44   1.402       .  A
C43          H48   1.083       .  S
C44         C781   1.478       .  S
C44          C45   1.398       .  A
C45         C838   1.397   1_554  A
C45          H49   1.085       .  S
C46         C765   1.483       .  S
C46          C47   1.405       .  A
C46         C837   1.399       .  A
C47         C834   1.413       .  A
C47          H50   1.083       .  S
C51         C714   1.504   1_554  S
C51          C52   1.424       .  A
C51          C56   1.410       .  A
C52         C669   1.497       .  S
C52          C53   1.406       .  A
C53          C54   1.403   1_565  A
C53          H58   1.083       .  S
C54         C618   1.496       .  S
C54          C55   1.420       .  A
C55         C570   1.501       .  S
C55          C56   1.408   1_545  A
C56          H57   1.077       .  S
O59         Ni67   1.917       .  S
O59          C69   1.280       .  A
O60         Ni67   1.914       .  S
O60          C70   1.280       .  A
O61         Ni67   1.922       .  S
O61          C71   1.283       .  A
O62         Ni67   1.921       .  S
O62          C72   1.283       .  A
O63         Ni68   1.914       .  S
O63          C72   1.280       .  A
O64         Ni68   1.914       .  S
O64          C71   1.280       .  A
O65         Ni68   1.926       .  S
O65          C70   1.283       .  A
O66         Ni68   1.923       .  S
O66          C69   1.284       .  A
Ni67        Ni68   2.382       .  S
C69         C541   1.496       .  S
C70         C506   1.486       .  S
C71         C522   1.485       .  S
C72         C557   1.491       .  S
O73         Ni81   1.917       .  S
O73          C83   1.281       .  A
O74         Ni81   1.917       .  S
O74          C84   1.281       .  A
O75         Ni81   1.922       .  S
O75          C85   1.284       .  A
O76         Ni81   1.923       .  S
O76          C86   1.283       .  A
O77         Ni82   1.911       .  S
O77          C86   1.279       .  A
O78         Ni82   1.909       .  S
O78          C85   1.278       .  A
O79         Ni82   1.917       .  S
O79          C84   1.281       .  A
O80         Ni82   1.919       .  S
O80          C83   1.282       .  A
Ni81        Ni82   2.381       .  S
C83         C653   1.488       .  S
C84         C490   1.488       .  S
C85         C477   1.494       .  S
C86         C637   1.485       .  S
C87         C458   1.499       .  S
C87          C88   1.413       .  A
C87         C884   1.411   1_554  A
C88          C89   1.404       .  A
C88          H93   1.083       .  S
C89         C554   1.478       .  S
C89          C90   1.398       .  A
C90         C883   1.395   1_554  A
C90          H94   1.085       .  S
C91         C538   1.480       .  S
C91          C92   1.403       .  A
C91         C882   1.397       .  A
C92         C879   1.412       .  A
C92          H95   1.083       .  S
C96         C442   1.496       .  S
C96         C101   1.410       .  A
C96         C889   1.413   1_554  A
C97          C98   1.402       .  A
C97         C888   1.409       .  A
C97         H102   1.083       .  S
C98         C493   1.478       .  S
C98         C891   1.400       .  A
C99         C100   1.397       .  A
C99         C890   1.399   1_554  A
C99         H103   1.085       .  S
C100        C474   1.474       .  S
C100        C101   1.399       .  A
C101        H104   1.083       .  S
C105        C426   1.494       .  S
C105        C106   1.411       .  A
C105        C902   1.411       .  A
C106        C107   1.400       .  A
C106        H111   1.084       .  S
C107        C749   1.476       .  S
C107        C108   1.397       .  A
C108        C901   1.399       .  A
C108        H112   1.085       .  S
C109        C733   1.479       .  S
C109        C110   1.403       .  A
C109        C900   1.399       .  A
C110        C897   1.408       .  A
C110        H113   1.082       .  S
C114        C410   1.491       .  S
C114        C119   1.409       .  A
C114        C907   1.408       .  A
C115        C116   1.402       .  A
C115        C906   1.411   1_554  A
C115        H120   1.084       .  S
C116        C394   1.477       .  S
C116        C909   1.396   1_554  A
C117        C118   1.400       .  A
C117        C908   1.397       .  A
C117        H121   1.084       .  S
C118        C378   1.480       .  S
C118        C119   1.404       .  A
C119        H122   1.082       .  S
C123        C461   1.497       .  S
C123        C124   1.422       .  A
C123        C128   1.405   1_455  A
C124        C445   1.496       .  S
C124        C125   1.404   1_455  A
C125        C126   1.404       .  A
C125        H130   1.080   1_554  S
C126       C1205   1.496   1_554  S
C126        C127   1.420       .  A
C127       C1221   1.494       .  S
C127        C128   1.406       .  A
C128        H129   1.080       .  S
O131       Ni139   1.917       .  S
O131        C141   1.280       .  A
O132       Ni139   1.918       .  S
O132        C142   1.281       .  A
O133       Ni139   1.914       .  S
O133        C143   1.279       .  A
O134       Ni139   1.915       .  S
O134        C144   1.279       .  A
O135       Ni140   1.922       .  S
O135        C144   1.283       .  A
O136       Ni140   1.922       .  S
O136        C143   1.283       .  A
O137       Ni140   1.919       .  S
O137        C142   1.282       .  A
O138       Ni140   1.919       .  S
O138        C141   1.282       .  A
Ni139      Ni140   2.377       .  S
C141        C602   1.497       .  S
C142        C362   1.497       .  S
C143        C346   1.493       .  S
C144        C589   1.497       .  S
O145       Ni153   1.920       .  S
O145        C155   1.283       .  A
O146       Ni153   1.920       .  S
O146        C156   1.282       .  A
O147       Ni153   1.917       .  S
O147        C157   1.282       .  A
O148       Ni153   1.916       .  S
O148        C158   1.281       .  A
O149       Ni154   1.920       .  S
O149        C158   1.282       .  A
O150       Ni154   1.919       .  S
O150        C157   1.281       .  A
O151       Ni154   1.915       .  S
O151        C156   1.280       .  A
O152       Ni154   1.920       .  S
O152        C155   1.281       .  A
Ni153      Ni154   2.383       .  S
C155        C314   1.495       .  S
C156        C381   1.485       .  S
C157        C397   1.492       .  S
C158        C330   1.481       .  S
O159       Ni167   1.918       .  S
O159        C169   1.282       .  A
O160       Ni167   1.918       .  S
O160        C170   1.280       .  A
O161       Ni167   1.923       .  S
O161        C171   1.283       .  A
O162       Ni167   1.924       .  S
O162        C172   1.284       .  A
O163       Ni168   1.914       .  S
O163        C172   1.279       .  A
O164       Ni168   1.913       .  S
O164        C171   1.279       .  A
O165       Ni168   1.927       .  S
O165        C170   1.284       .  A
O166       Ni168   1.925       .  S
O166        C169   1.282       .  A
Ni167      Ni168   2.377       .  S
C169        C298   1.499       .  S
C170        C701   1.501       .  S
C171        C685   1.494       .  S
C172        C282   1.496       .  S
C173        C266   1.494       .  S
C173        C174   1.410       .  A
C173        C970   1.410       .  A
C174        C175   1.401       .  A
C174        H179   1.084       .  S
C175        C525   1.478       .  S
C175        C176   1.397       .  A
C176        C969   1.400       .  A
C176        H180   1.085       .  S
C177        C509   1.485       .  S
C177        C178   1.406       .  A
C177        C968   1.402       .  A
C178        C965   1.408       .  A
C178        H181   1.081       .  S
C182        C250   1.491       .  S
C182        C187   1.410       .  A
C182        C975   1.410       .  A
C183        C184   1.403       .  A
C183        C974   1.411   1_554  A
C183        H188   1.083       .  S
C184        C301   1.481       .  S
C184        C977   1.398   1_554  A
C185        C186   1.399       .  A
C185        C976   1.398       .  A
C185        H189   1.085       .  S
C186        C285   1.479       .  S
C186        C187   1.403       .  A
C187        H190   1.084       .  S
C191        C234   1.493       .  S
C191        C196   1.411       .  A
C191        C984   1.409       .  A
C192        C193   1.403       .  A
C192        C983   1.409       .  A
C192        H197   1.082       .  S
C193        C365   1.477       .  S
C193        C986   1.398       .  A
C194        C195   1.397       .  A
C194        C985   1.398       .  A
C194        H198   1.085       .  S
C195        C349   1.478       .  S
C195        C196   1.403       .  A
C196        H199   1.084       .  S
C200        C218   1.490       .  S
C200        C201   1.409       .  A
C200        C997   1.409       .  A
C201        C202   1.405       .  A
C201        H206   1.083       .  S
C202        C333   1.484       .  S
C202        C203   1.401       .  A
C203        C996   1.398       .  A
C203        H207   1.084       .  S
C204        C317   1.479       .  S
C204        C205   1.403       .  A
C204        C995   1.398   1_554  A
C205        C992   1.409   1_554  A
C205        H208   1.082       .  S
C209        C269   1.497       .  S
C209        C210   1.419       .  A
C209        C214   1.410       .  A
C210        C253   1.492       .  S
C210        C211   1.402       .  A
C211        C212   1.404       .  A
C211        H216   1.085       .  S
C212        C221   1.492       .  S
C212        C213   1.423       .  A
C213        C237   1.500       .  S
C213        C214   1.410       .  A
C214        H215   1.083       .  S
C217        C222   1.403       .  A
C217       C1010   1.406       .  A
C217        H224   1.085       .  S
C218        C219   1.417       .  A
C218       C1009   1.406       .  A
C219        C220   1.404       .  A
C219        C226   1.508       .  S
C220        C221   1.404       .  A
C220        H225   1.084       .  S
C221       C1014   1.415       .  A
C222       C1013   1.415       .  A
C222        C223   1.505       .  S
C223        H227   1.110       .  S
C223        H229   1.110       .  S
C223       H1020   1.107       .  S
C226        H230   1.110       .  S
C226        H232   1.111       .  S
C226       H1023   1.106       .  S
H228       C1015   1.107       .  S
H231       C1018   1.107       .  S
C233        C234   1.404       .  A
C233        C238   1.405       .  A
C233        H240   1.084       .  S
C234       C1027   1.417       .  A
C235        C236   1.407       .  A
C235       C1026   1.416       .  A
C235        C242   1.508       .  S
C236       C1029   1.407       .  A
C236        H241   1.083       .  S
C237        C238   1.418       .  A
C237       C1028   1.406       .  A
C238        C239   1.508       .  S
C239        H243   1.111       .  S
C239        H244   1.109       .  S
C239        H245   1.107       .  S
C242        H246   1.110       .  S
C242        H247   1.107       .  S
C242        H248   1.111       .  S
C249        C250   1.406       .  A
C249        C254   1.404       .  A
C249        H256   1.084       .  S
C250       C1043   1.418       .  A
C251        C252   1.405       .  A
C251       C1042   1.417       .  A
C251        C258   1.509   1_556  S
C252       C1045   1.405       .  A
C252        H257   1.084   1_556  S
C253        C254   1.415       .  A
C253       C1044   1.404       .  A
C254        C255   1.506       .  S
C255        H259   1.110       .  S
C255        H261   1.108       .  S
C255       H1052   1.110       .  S
C258        H262   1.106       .  S
C258        H264   1.111       .  S
C258       H1055   1.110   1_554  S
H260       C1047   1.110       .  S
H263       C1050   1.110       .  S
C265        C266   1.406       .  A
C265        C270   1.403       .  A
C265        H272   1.085       .  S
C266       C1059   1.418       .  A
C267        C268   1.407       .  A
C267       C1058   1.419       .  A
C267        C274   1.509       .  S
C268       C1061   1.405   1_554  A
C268        H273   1.084       .  S
C269        C270   1.418       .  A
C269       C1060   1.406       .  A
C270        C271   1.508       .  S
C271        H275   1.111       .  S
C271        H276   1.110       .  S
C271        H277   1.105       .  S
C274        H278   1.106       .  S
C274        H279   1.110       .  S
C274        H280   1.111       .  S
C281        C282   1.408       .  A
C281        C286   1.403       .  A
C281        H288   1.083       .  S
C282        C283   1.425       .  A
C283        C284   1.407       .  A
C283        C290   1.508       .  S
C284        C285   1.399       .  A
C284        H289   1.084       .  S
C285        C286   1.409       .  A
C286        C287   1.507       .  S
C287        H291   1.111       .  S
C287        H292   1.108       .  S
C287        H293   1.110       .  S
C290        H294   1.110       .  S
C290        H295   1.110       .  S
C290        H296   1.111       .  S
C297        C298   1.412       .  A
C297        C302   1.406       .  A
C297        H304   1.083       .  S
C298        C299   1.423       .  A
C299        C300   1.406       .  A
C299        C306   1.508       .  S
C300        C301   1.400       .  A
C300        H305   1.084       .  S
C301        C302   1.408       .  A
C302        C303   1.507       .  S
C303        H307   1.111       .  S
C303        H308   1.110       .  S
C303        H309   1.110       .  S
C306        H310   1.110       .  S
C306        H311   1.110       .  S
C306        H312   1.111       .  S
C313        C314   1.408       .  A
C313        C318   1.402       .  A
C313        H320   1.084       .  S
C314        C315   1.422       .  A
C315        C316   1.407       .  A
C315        C322   1.508       .  S
C316        C317   1.401       .  A
C316        H321   1.084       .  S
C317        C318   1.413       .  A
C318        C319   1.509       .  S
C319        H323   1.110       .  S
C319        H324   1.107       .  S
C319        H325   1.110       .  S
C322        H326   1.110       .  S
C322        H327   1.109       .  S
C322        H328   1.111       .  S
C329        C330   1.405       .  A
C329        C334   1.406       .  A
C329        H336   1.084       .  S
C330        C331   1.419       .  A
C331        C332   1.402       .  A
C331        C338   1.510       .  S
C332        C333   1.403       .  A
C332        H337   1.085       .  S
C333        C334   1.414       .  A
C334        C335   1.508       .  S
C335        H339   1.111       .  S
C335        H340   1.108       .  S
C335        H341   1.110       .  S
C338        H342   1.104       .  S
C338        H343   1.111       .  S
C338        H344   1.110       .  S
C345        C346   1.408       .  A
C345        C350   1.403       .  A
C345        H352   1.084       .  S
C346        C347   1.424       .  A
C347        C348   1.407       .  A
C347        C354   1.508       .  S
C348        C349   1.399       .  A
C348        H353   1.084       .  S
C349        C350   1.410       .  A
C350        C351   1.508       .  S
C351        H355   1.111       .  S
C351        H356   1.110       .  S
C351        H357   1.109       .  S
C354        H358   1.111       .  S
C354        H359   1.109       .  S
C354        H360   1.111       .  S
C361        C362   1.411       .  A
C361        C366   1.404       .  A
C361        H368   1.083       .  S
C362        C363   1.425       .  A
C363        C364   1.406       .  A
C363        C370   1.508       .  S
C364        C365   1.399       .  A
C364        H369   1.084       .  S
C365        C366   1.407       .  A
C366        C367   1.507       .  S
C367        H371   1.111       .  S
C367        H372   1.110       .  S
C367        H373   1.110       .  S
C370        H374   1.110       .  S
C370        H375   1.110       .  S
C370        H376   1.111       .  S
C377        C378   1.401       .  A
C377        C382   1.405       .  A
C377        H384   1.084       .  S
C378        C379   1.412       .  A
C379        C380   1.404       .  A
C379        C386   1.508       .  S
C380        C381   1.406       .  A
C380        H385   1.084       .  S
C381        C382   1.419       .  A
C382        C383   1.508       .  S
C383        H387   1.111       .  S
C383        H388   1.111       .  S
C383        H389   1.109       .  S
C386        H390   1.110       .  S
C386        H391   1.109       .  S
C386        H392   1.111       .  S
C393        C394   1.399       .  A
C393        C398   1.406       .  A
C393        H400   1.084       .  S
C394        C395   1.409       .  A
C395        C396   1.403       .  A
C395        C402   1.507       .  S
C396        C397   1.409       .  A
C396        H401   1.084       .  S
C397        C398   1.422       .  A
C398        C399   1.507       .  S
C399        H403   1.111       .  S
C399        H404   1.109       .  S
C399        H405   1.110       .  S
C402        H406   1.111       .  S
C402        H407   1.110       .  S
C402        H408   1.111       .  S
C409        C410   1.406       .  A
C409        C414   1.405       .  A
C409        H416   1.084       .  S
C410       C1203   1.417       .  A
C411        C412   1.406       .  A
C411       C1202   1.419       .  A
C411        C418   1.509       .  S
C412       C1205   1.405       .  A
C412        H417   1.084       .  S
C413        C918   1.496       .  S
C413        C414   1.417       .  A
C413       C1204   1.405       .  A
C414        C415   1.509       .  S
C415        H419   1.111       .  S
C415        H420   1.107       .  S
C415       H1213   1.110       .  S
C418        H423   1.110       .  S
C418        H424   1.111       .  S
C418       H1214   1.106       .  S
H421       C1207   1.110       .  S
H422       C1210   1.106       .  S
C425        C426   1.407       .  A
C425        C430   1.403       .  A
C425        H432   1.084       .  S
C426       C1219   1.419       .  A
C427        C428   1.404       .  A
C427       C1218   1.416       .  A
C427        C434   1.509       .  S
C428       C1221   1.406       .  A
C428        H433   1.084       .  S
C429        C919   1.494       .  S
C429        C430   1.414       .  A
C429       C1220   1.406       .  A
C430        C431   1.509       .  S
C431        H435   1.111       .  S
C431        H437   1.110       .  S
C431       H1228   1.107       .  S
C434        H438   1.106       .  S
C434        H440   1.111       .  S
C434       H1231   1.111       .  S
H436       C1223   1.107       .  S
H439       C1226   1.110       .  S
C441        C446   1.405       .  A
C441       C1234   1.408       .  A
C441        H448   1.083       .  S
C442        C443   1.420       .  A
C442       C1233   1.408   1_554  A
C443        C444   1.401       .  A
C443        C450   1.509       .  S
C444        C445   1.404       .  A
C444        H449   1.084       .  S
C445       C1238   1.416   1_554  A
C446       C1237   1.415       .  A
C446        C447   1.508       .  S
C447        H451   1.111       .  S
C447        H453   1.110       .  S
C447       H1244   1.107       .  S
C450        H454   1.110       .  S
C450        H456   1.111       .  S
C450       H1247   1.107       .  S
H452       C1239   1.107       .  S
H455       C1242   1.106       .  S
C457        C458   1.409       .  A
C457        C462   1.407       .  A
C457        H464   1.083       .  S
C458       C1251   1.420   1_554  A
C459        C460   1.404       .  A
C459       C1250   1.421       .  A
C459        C466   1.508       .  S
C460       C1253   1.405       .  A
C460        H465   1.084       .  S
C461        C462   1.416       .  A
C461       C1252   1.404   1_554  A
C462        C463   1.508       .  S
C463        H467   1.111       .  S
C463        H469   1.110       .  S
C463       H1260   1.107       .  S
C466        H470   1.110       .  S
C466        H472   1.111       .  S
C466       H1263   1.106       .  S
H468       C1255   1.107       .  S
H471       C1258   1.106       .  S
C473        C474   1.397       .  A
C473        C478   1.405       .  A
C473        H480   1.084       .  S
C474        C475   1.410       .  A
C475        C476   1.400       .  A
C475        C482   1.509       .  S
C476        C477   1.408       .  A
C476        H481   1.084       .  S
C477        C478   1.426       .  A
C478        C479   1.509       .  S
C479        H483   1.111       .  S
C479        H484   1.110       .  S
C479        H485   1.110       .  S
C482        H486   1.110       .  S
C482        H487   1.108       .  S
C482        H488   1.110       .  S
C489        C490   1.408       .  A
C489        C494   1.403       .  A
C489        H496   1.084       .  S
C490        C491   1.420       .  A
C491        C492   1.403       .  A
C491        C498   1.508       .  S
C492        C493   1.401       .  A
C492        H497   1.084       .  S
C493        C494   1.412       .  A
C494        C495   1.508       .  S
C495        H499   1.110       .  S
C495        H500   1.110       .  S
C495        H501   1.109       .  S
C498        H502   1.111       .  S
C498        H503   1.109       .  S
C498        H504   1.111       .  S
C505        C506   1.405       .  A
C505        C510   1.404       .  A
C505        H512   1.085       .  S
C506        C507   1.420       .  A
C507        C508   1.404       .  A
C507        C514   1.508       .  S
C508        C509   1.402       .  A
C508        H513   1.085       .  S
C509        C510   1.417       .  A
C510        C511   1.508       .  S
C511        H515   1.111       .  S
C511        H516   1.110       .  S
C511        H517   1.108       .  S
C514        H518   1.106       .  S
C514        H519   1.111       .  S
C514        H520   1.110       .  S
C521        C522   1.404       .  A
C521        C526   1.401       .  A
C521        H528   1.085       .  S
C522        C523   1.421       .  A
C523        C524   1.405       .  A
C523        C530   1.508       .  S
C524        C525   1.400       .  A
C524        H529   1.085       .  S
C525        C526   1.414       .  A
C526        C527   1.508       .  S
C527        H531   1.110       .  S
C527        H532   1.110       .  S
C527        H533   1.108       .  S
C530        H534   1.106       .  S
C530        H535   1.111       .  S
C530        H536   1.110       .  S
C537        C538   1.400       .  A
C537        C542   1.407       .  A
C537        H544   1.084       .  S
C538        C539   1.412       .  A
C539        C540   1.403       .  A
C539        C546   1.508       .  S
C540        C541   1.408       .  A
C540        H545   1.084       .  S
C541        C542   1.424       .  A
C542        C543   1.508       .  S
C543        H547   1.111       .  S
C543        H548   1.111       .  S
C543        H549   1.110       .  S
C546        H550   1.110       .  S
C546        H551   1.107       .  S
C546        H552   1.110       .  S
C553        C554   1.399       .  A
C553        C558   1.404       .  A
C553        H560   1.084       .  S
C554        C555   1.410       .  A
C555        C556   1.405       .  A
C555        C562   1.507       .  S
C556        C557   1.408       .  A
C556        H561   1.084       .  S
C557        C558   1.422       .  A
C558        C559   1.509       .  S
C559        H563   1.111       .  S
C559        H564   1.111       .  S
C559        H565   1.110       .  S
C562        H566   1.110       .  S
C562        H567   1.110       .  S
C562        H568   1.111       .  S
C569        C570   1.406       .  A
C569        C574   1.403       .  A
C569        H576   1.084       .  S
C570       C1363   1.417   1_554  A
C571        C572   1.406       .  A
C571       C1362   1.416       .  A
C571        C578   1.509       .  S
C572       C1365   1.408       .  A
C572        H577   1.083       .  S
C573        C574   1.419       .  A
C573       C1364   1.408   1_554  A
C574        C575   1.509       .  S
C575        H579   1.111       .  S
C575        H581   1.110       .  S
C575       H1372   1.107       .  S
C578        H582   1.110       .  S
C578        H584   1.111       .  S
C578       H1375   1.107       .  S
H580       C1367   1.107       .  S
H583       C1370   1.107       .  S
C585        C586   1.398       .  A
C585        C590   1.406       .  A
C585        H592   1.084       .  S
C586        C587   1.408       .  A
C587        C588   1.403       .  A
C587        C594   1.507       .  S
C588        C589   1.410       .  A
C588        H593   1.083       .  S
C589        C590   1.426       .  A
C590        C591   1.508       .  S
C591        H595   1.111       .  S
C591        H596   1.110       .  S
C591        H597   1.110       .  S
C594        H598   1.110       .  S
C594        H599   1.111       .  S
C594        H600   1.111       .  S
C601        C602   1.412       .  A
C601        C606   1.404       .  A
C601        H608   1.083       .  S
C602        C603   1.425       .  A
C603        C604   1.405       .  A
C603        C610   1.509       .  S
C604        C605   1.398       .  A
C604        H609   1.084       .  S
C605        C606   1.406       .  A
C606        C607   1.506       .  S
C607        H611   1.111       .  S
C607        H612   1.111       .  S
C607        H613   1.110       .  S
C610        H614   1.110       .  S
C610        H615   1.110       .  S
C610        H616   1.111       .  S
C617        C622   1.401       .  A
C617       C1410   1.404       .  A
C617        H624   1.084       .  S
C618        C619   1.416       .  A
C618       C1409   1.405   1_554  A
C619        C620   1.405       .  A
C619        C626   1.508       .  S
C620        C621   1.407       .  A
C620        H625   1.083       .  S
C621       C1414   1.419   1_554  A
C622       C1413   1.419       .  A
C622        C623   1.509       .  S
C623        H627   1.111       .  S
C623        H629   1.110       .  S
C623       H1420   1.107       .  S
C626        H630   1.110       .  S
C626        H632   1.111       .  S
C626       H1423   1.107       .  S
H628       C1415   1.107       .  S
H631       C1418   1.107       .  S
C633        C634   1.400       .  A
C633        C638   1.404       .  A
C633        H640   1.084       .  S
C634        C635   1.413       .  A
C635        C636   1.402       .  A
C635        C642   1.508       .  S
C636        C637   1.405       .  A
C636        H641   1.084       .  S
C637        C638   1.420       .  A
C638        C639   1.508       .  S
C639        H643   1.111       .  S
C639        H644   1.109       .  S
C639        H645   1.111       .  S
C642        H646   1.110       .  S
C642        H647   1.108       .  S
C642        H648   1.110       .  S
C649        C650   1.402       .  A
C649        C654   1.406       .  A
C649        H656   1.084       .  S
C650        C651   1.413       .  A
C651        C652   1.402       .  A
C651        C658   1.508       .  S
C652        C653   1.406       .  A
C652        H657   1.084       .  S
C653        C654   1.420       .  A
C654        C655   1.508       .  S
C655        H659   1.111       .  S
C655        H660   1.109       .  S
C655        H661   1.111       .  S
C658        H662   1.110       .  S
C658        H663   1.108       .  S
C658        H664   1.110       .  S
C665        C666   1.405       .  A
C665        C670   1.401       .  A
C665        H672   1.084       .  S
C666       C1459   1.419       .  A
C667        C668   1.406       .  A
C667       C1458   1.419   1_556  A
C667        C674   1.509       .  S
C668        C669   1.405   1_556  A
C668        H673   1.084       .  S
C669       C1462   1.416       .  A
C670       C1461   1.415       .  A
C670        C671   1.505       .  S
C671        H675   1.110       .  S
C671        H677   1.110       .  S
C671       H1468   1.106       .  S
C674        H678   1.110       .  S
C674        H680   1.111       .  S
C674       H1471   1.106       .  S
H676       C1463   1.106       .  S
H679       C1466   1.106       .  S
C681        C682   1.400       .  A
C681        C686   1.405       .  A
C681        H688   1.085       .  S
C682        C683   1.412       .  A
C683        C684   1.403       .  A
C683        C690   1.508       .  S
C684        C685   1.408       .  A
C684        H689   1.084       .  S
C685        C686   1.423       .  A
C686        C687   1.509       .  S
C687        H691   1.111       .  S
C687        H692   1.110       .  S
C687        H693   1.110       .  S
C690        H694   1.110       .  S
C690        H695   1.108       .  S
C690        H696   1.110       .  S
C697        C698   1.401       .  A
C697        C702   1.406       .  A
C697        H704   1.084       .  S
C698        C699   1.410       .  A
C699        C700   1.408       .  A
C699        C706   1.506       .  S
C700        C701   1.411       .  A
C700        H705   1.083       .  S
C701        C702   1.425       .  A
C702        C703   1.509       .  S
C703        H707   1.111       .  S
C703        H708   1.110       .  S
C703        H709   1.110       .  S
C706        H710   1.110       .  S
C706        H711   1.109       .  S
C706        H712   1.111       .  S
C713        C718   1.406       .  A
C713       C1506   1.407       .  A
C713        H720   1.084       .  S
C714        C715   1.420   1_556  A
C714       C1505   1.407       .  A
C715        C716   1.408       .  A
C715        C722   1.510       .  S
C716        C717   1.407   1_554  A
C716        H721   1.084       .  S
C717       C1510   1.417       .  A
C718       C1509   1.417       .  A
C718        C719   1.508       .  S
C719        H723   1.111       .  S
C719        H725   1.106       .  S
C719       H1516   1.110       .  S
C722        H726   1.108       .  S
C722        H728   1.111       .  S
C722       H1519   1.106       .  S
H724       C1511   1.110       .  S
H727       C1514   1.106       .  S
C729        C730   1.407       .  A
C729        C734   1.404       .  A
C729        H736   1.084       .  S
C730        C731   1.419       .  A
C731        C732   1.405       .  A
C731        C738   1.508       .  S
C732        C733   1.401       .  A
C732        H737   1.085       .  S
C733        C734   1.411       .  A
C734        C735   1.508       .  S
C735        H739   1.111       .  S
C735        H740   1.110       .  S
C735        H741   1.109       .  S
C738        H742   1.111       .  S
C738        H743   1.109       .  S
C738        H744   1.111       .  S
C745        C746   1.409       .  A
C745        C750   1.402       .  A
C745        H752   1.083       .  S
C746        C747   1.426       .  A
C747        C748   1.407       .  A
C747        C754   1.508       .  S
C748        C749   1.397       .  A
C748        H753   1.084       .  S
C749        C750   1.408       .  A
C750        C751   1.507       .  S
C751        H755   1.111       .  S
C751        H756   1.108       .  S
C751        H757   1.110       .  S
C754        H758   1.110       .  S
C754        H759   1.111       .  S
C754        H760   1.111       .  S
C761        C762   1.406       .  A
C761        C766   1.404       .  A
C761        H768   1.085       .  S
C762        C763   1.418       .  A
C763        C764   1.405       .  A
C763        C770   1.508       .  S
C764        C765   1.403       .  A
C764        H769   1.085       .  S
C765        C766   1.415       .  A
C766        C767   1.508       .  S
C767        H771   1.110       .  S
C767        H772   1.106       .  S
C767        H773   1.111       .  S
C770        H774   1.110       .  S
C770        H775   1.111       .  S
C770        H776   1.111       .  S
C777        C778   1.409       .  A
C777        C782   1.405       .  A
C777        H784   1.083       .  S
C778        C779   1.424       .  A
C779        C780   1.405       .  A
C779        C786   1.509       .  S
C780        C781   1.398       .  A
C780        H785   1.084       .  S
C781        C782   1.409       .  A
C782        C783   1.507       .  S
C783        H787   1.111       .  S
C783        H788   1.110       .  S
C783        H789   1.110       .  S
C786        H790   1.109       .  S
C786        H791   1.110       .  S
C786        H792   1.111       .  S
O793       Ni801   1.919       .  S
O793        C803   1.282       .  A
O794       Ni801   1.919       .  S
O794        C804   1.283       .  A
O795       Ni801   1.921       .  S
O795        C805   1.282       .  A
O796       Ni801   1.918       .  S
O796        C806   1.282       .  A
O797       Ni802   1.915       .  S
O797        C806   1.280       .  A
O798       Ni802   1.916       .  S
O798        C805   1.280       .  A
O799       Ni802   1.921       .  S
O799        C804   1.281       .  A
O800       Ni802   1.919       .  S
O800        C803   1.281       .  A
Ni801      Ni802   2.381       .  S
C803       C1522   1.489       .  S
C804       C1554   1.499       .  S
C805       C1570   1.492       .  S
C806       C1538   1.486       .  S
C807       C1509   1.498       .  S
C807        C812   1.410       .  A
C808        C809   1.407       .  A
C808        H813   1.081       .  S
C809       C1490   1.481       .  S
C810        C811   1.399       .  A
C810        H814   1.085       .  S
C811       C1474   1.484       .  S
C811        C812   1.403       .  A
C812        H815   1.084       .  S
C816       C1458   1.494       .  S
C816        C817   1.408   1_554  A
C817        C818   1.403       .  A
C817        H822   1.082       .  S
C818       C1426   1.480       .  S
C818        C819   1.399   1_556  A
C819        H823   1.084       .  S
C820       C1442   1.477       .  S
C820        C821   1.403       .  A
C821        H824   1.083       .  S
C825       C1413   1.495       .  S
C825        C830   1.411       .  A
C826        C827   1.402       .  A
C826        H831   1.083       .  S
C827       C1397   1.477       .  S
C828        C829   1.398       .  A
C828        H832   1.085       .  S
C829       C1378   1.476       .  S
C829        C830   1.403       .  A
C830        H833   1.083       .  S
C834       C1365   1.499       .  S
C834        C835   1.412       .  A
C835        C836   1.403       .  A
C835        H840   1.083       .  S
C836       C1573   1.479       .  S
C836        C837   1.398       .  A
C837        H841   1.085       .  S
C838       C1557   1.478       .  S
C838        C839   1.404       .  A
C839        H842   1.083       .  S
C843       C1506   1.503       .  S
C843        C844   1.423       .  A
C843        C848   1.408       .  A
C844       C1461   1.494       .  S
C844        C845   1.404       .  A
C845        C846   1.403   1_565  A
C845        H850   1.082       .  S
C846       C1410   1.497       .  S
C846        C847   1.421       .  A
C847       C1362   1.499       .  S
C847        C848   1.408   1_545  A
C848        H849   1.077       .  S
O851       Ni859   1.911       .  S
O851        C861   1.279       .  A
O852       Ni859   1.912       .  S
O852        C862   1.280       .  A
O853       Ni859   1.925       .  S
O853        C863   1.283       .  A
O854       Ni859   1.924       .  S
O854        C864   1.283       .  A
O855       Ni860   1.918       .  S
O855        C864   1.281       .  A
O856       Ni860   1.914       .  S
O856        C863   1.280       .  A
O857       Ni860   1.923       .  S
O857        C862   1.283       .  A
O858       Ni860   1.925       .  S
O858        C861   1.284       .  A
Ni859      Ni860   2.384       .  S
C861       C1333   1.492       .  S
C862       C1298   1.483       .  S
C863       C1314   1.483       .  S
C864       C1349   1.488       .  S
O865       Ni873   1.921       .  S
O865        C875   1.281       .  A
O866       Ni873   1.921       .  S
O866        C876   1.283       .  A
O867       Ni873   1.918       .  S
O867        C877   1.283       .  A
O868       Ni873   1.918       .  S
O868        C878   1.282       .  A
O869       Ni874   1.917       .  S
O869        C878   1.280       .  A
O870       Ni874   1.916       .  S
O870        C877   1.280       .  A
O871       Ni874   1.918       .  S
O871        C876   1.281       .  A
O872       Ni874   1.917       .  S
O872        C875   1.282       .  A
Ni873      Ni874   2.381       .  S
C875       C1445   1.493       .  S
C876       C1282   1.491       .  S
C877       C1269   1.496       .  S
C878       C1429   1.485       .  S
C879       C1250   1.502       .  S
C879        C880   1.414       .  A
C880        C881   1.407       .  A
C880        H885   1.083       .  S
C881       C1346   1.488       .  S
C881        C882   1.400       .  A
C882        H886   1.085       .  S
C883       C1330   1.475       .  S
C883        C884   1.401       .  A
C884        H887   1.083       .  S
C888       C1234   1.491       .  S
C888        C893   1.408       .  A
C889        C890   1.405       .  A
C889        H894   1.083       .  S
C890       C1285   1.482       .  S
C891        C892   1.398       .  A
C891        H895   1.084       .  S
C892       C1266   1.475       .  S
C892        C893   1.400       .  A
C893        H896   1.083       .  S
C897       C1218   1.489       .  S
C897        C898   1.408   1_554  A
C898        C899   1.401       .  A
C898        H903   1.084       .  S
C899       C1541   1.479       .  S
C899        C900   1.399   1_556  A
C900        H904   1.085       .  S
C901       C1525   1.480       .  S
C901        C902   1.404       .  A
C902        H905   1.081       .  S
C906       C1202   1.495       .  S
C906        C911   1.411       .  A
C907        C908   1.401       .  A
C907        H912   1.084       .  S
C908       C1186   1.475       .  S
C909        C910   1.398       .  A
C909        H913   1.085       .  S
C910       C1170   1.480       .  S
C910        C911   1.405       .  A
C911        H914   1.081       .  S
C915       C1253   1.500       .  S
C915        C916   1.420       .  A
C915        C920   1.404   1_455  A
C916       C1237   1.491       .  S
C916        C917   1.403   1_455  A
C917        C918   1.404       .  A
C917        H922   1.080       .  S
C918        C919   1.421       .  A
C919        C920   1.407       .  A
C920        H921   1.081       .  S
O923       Ni931   1.917       .  S
O923        C933   1.281       .  A
O924       Ni931   1.919       .  S
O924        C934   1.281       .  A
O925       Ni931   1.917       .  S
O925        C935   1.280       .  A
O926       Ni931   1.916       .  S
O926        C936   1.280       .  A
O927       Ni932   1.920       .  S
O927        C936   1.283       .  A
O928       Ni932   1.922       .  S
O928        C935   1.283       .  A
O929       Ni932   1.915       .  S
O929        C934   1.282       .  A
O930       Ni932   1.916       .  S
O930        C933   1.281       .  A
Ni931      Ni932   2.380       .  S
C933       C1394   1.487       .  S
C934       C1154   1.490       .  S
C935       C1138   1.493       .  S
C936       C1381   1.496       .  S
O937       Ni945   1.917       .  S
O937        C947   1.282       .  A
O938       Ni945   1.919       .  S
O938        C948   1.282       .  A
O939       Ni945   1.914       .  S
O939        C949   1.282       .  A
O940       Ni945   1.914       .  S
O940        C950   1.280       .  A
O941       Ni946   1.918       .  S
O941        C950   1.281       .  A
O942       Ni946   1.918       .  S
O942        C949   1.281       .  A
O943       Ni946   1.919       .  S
O943        C948   1.281       .  A
O944       Ni946   1.920       .  S
O944        C947   1.281       .  A
Ni945      Ni946   2.383       .  S
C947       C1106   1.493       .  S
C948       C1173   1.488       .  S
C949       C1189   1.493       .  S
C950       C1122   1.478       .  S
O951       Ni959   1.922       .  S
O951        C961   1.283       .  A
O952       Ni959   1.924       .  S
O952        C962   1.282       .  A
O953       Ni959   1.920       .  S
O953        C963   1.282       .  A
O954       Ni959   1.919       .  S
O954        C964   1.282       .  A
O955       Ni960   1.916       .  S
O955        C964   1.280       .  A
O956       Ni960   1.918       .  S
O956        C963   1.281       .  A
O957       Ni960   1.919       .  S
O957        C962   1.282       .  A
O958       Ni960   1.918       .  S
O958        C961   1.280       .  A
Ni959      Ni960   2.380       .  S
C961       C1090   1.495       .  S
C962       C1493   1.497       .  S
C963       C1477   1.490       .  S
C964       C1074   1.490       .  S
C965       C1058   1.494       .  S
C965        C966   1.411   1_554  A
C966        C967   1.403       .  A
C966        H971   1.084       .  S
C967       C1317   1.484       .  S
C967        C968   1.401   1_556  A
C968        H972   1.084       .  S
C969       C1301   1.484       .  S
C969        C970   1.408       .  A
C970        H973   1.081       .  S
C974       C1042   1.491       .  S
C974        C979   1.409       .  A
C975        C976   1.402       .  A
C975        H980   1.082       .  S
C976       C1093   1.478       .  S
C977        C978   1.400       .  A
C977        H981   1.085       .  S
C978       C1077   1.480       .  S
C978        C979   1.404       .  A
C979        H982   1.084       .  S
C983       C1026   1.491       .  S
C983        C988   1.411   1_554  A
C984        C985   1.404       .  A
C984        H989   1.081       .  S
C985       C1157   1.481       .  S
C986        C987   1.398   1_554  A
C986        H990   1.085       .  S
C987       C1141   1.480       .  S
C987        C988   1.403       .  A
C988        H991   1.084       .  S
C992       C1010   1.487       .  S
C992        C993   1.407       .  A
C993        C994   1.403       .  A
C993        H998   1.083       .  S
C994       C1125   1.483       .  S
C994        C995   1.401       .  A
C995        H999   1.084       .  S
C996       C1109   1.479       .  S
C996        C997   1.402       .  A
C997       H1000   1.082       .  S
C1001      C1061   1.495       .  S
C1001      C1002   1.420       .  A
C1001      C1006   1.409   1_556  A
C1002      C1045   1.496       .  S
C1002      C1003   1.405       .  A
C1003      C1004   1.405       .  A
C1003      H1008   1.084       .  S
C1004      C1013   1.491       .  S
C1004      C1005   1.422       .  A
C1005      C1029   1.501   1_556  S
C1005      C1006   1.408   1_556  A
C1006      H1007   1.083       .  S
C1009      C1014   1.404       .  A
C1009      H1016   1.084       .  S
C1010      C1011   1.416   1_556  A
C1011      C1012   1.404       .  A
C1011      C1018   1.509       .  S
C1012      C1013   1.404   1_554  A
C1012      H1017   1.084       .  S
C1014      C1015   1.505       .  S
C1015      H1019   1.110       .  S
C1015      H1021   1.110       .  S
C1018      H1022   1.110       .  S
C1018      H1024   1.111       .  S
C1025      C1026   1.403   1_556  A
C1025      C1030   1.405       .  A
C1025      H1032   1.084       .  S
C1027      C1028   1.406       .  A
C1027      C1034   1.509       .  S
C1028      H1033   1.083       .  S
C1029      C1030   1.419   1_554  A
C1030      C1031   1.508       .  S
C1031      H1035   1.111       .  S
C1031      H1036   1.109       .  S
C1031      H1037   1.107       .  S
C1034      H1038   1.110       .  S
C1034      H1039   1.106       .  S
C1034      H1040   1.111       .  S
C1041      C1042   1.406       .  A
C1041      C1046   1.405       .  A
C1041      H1048   1.084       .  S
C1043      C1044   1.404       .  A
C1043      C1050   1.509       .  S
C1044      H1049   1.084       .  S
C1045      C1046   1.416       .  A
C1046      C1047   1.505       .  S
C1047      H1051   1.110       .  S
C1047      H1053   1.108       .  S
C1050      H1054   1.106       .  S
C1050      H1056   1.111       .  S
C1057      C1058   1.405   1_556  A
C1057      C1062   1.403       .  A
C1057      H1064   1.084       .  S
C1059      C1060   1.407       .  A
C1059      C1066   1.508       .  S
C1060      H1065   1.084       .  S
C1061      C1062   1.418       .  A
C1062      C1063   1.508       .  S
C1063      H1067   1.111       .  S
C1063      H1068   1.110       .  S
C1063      H1069   1.105       .  S
C1066      H1070   1.107       .  S
C1066      H1071   1.111       .  S
C1066      H1072   1.111       .  S
C1073      C1074   1.409       .  A
C1073      C1078   1.406       .  A
C1073      H1080   1.084       .  S
C1074      C1075   1.420       .  A
C1075      C1076   1.403       .  A
C1075      C1082   1.508       .  S
C1076      C1077   1.400       .  A
C1076      H1081   1.085       .  S
C1077      C1078   1.411       .  A
C1078      C1079   1.507       .  S
C1079      H1083   1.111       .  S
C1079      H1084   1.110       .  S
C1079      H1085   1.109       .  S
C1082      H1086   1.111       .  S
C1082      H1087   1.110       .  S
C1082      H1088   1.111       .  S
C1089      C1090   1.409       .  A
C1089      C1094   1.404       .  A
C1089      H1096   1.083       .  S
C1090      C1091   1.424       .  A
C1091      C1092   1.406       .  A
C1091      C1098   1.508       .  S
C1092      C1093   1.399       .  A
C1092      H1097   1.084       .  S
C1093      C1094   1.408       .  A
C1094      C1095   1.506       .  S
C1095      H1099   1.111       .  S
C1095      H1100   1.111       .  S
C1095      H1101   1.108       .  S
C1098      H1102   1.110       .  S
C1098      H1103   1.109       .  S
C1098      H1104   1.111       .  S
C1105      C1106   1.409       .  A
C1105      C1110   1.403       .  A
C1105      H1112   1.084       .  S
C1106      C1107   1.422       .  A
C1107      C1108   1.406       .  A
C1107      C1114   1.508       .  S
C1108      C1109   1.400       .  A
C1108      H1113   1.084       .  S
C1109      C1110   1.409       .  A
C1110      C1111   1.507       .  S
C1111      H1115   1.111       .  S
C1111      H1116   1.108       .  S
C1111      H1117   1.110       .  S
C1114      H1118   1.110       .  S
C1114      H1119   1.110       .  S
C1114      H1120   1.111       .  S
C1121      C1122   1.405       .  A
C1121      C1126   1.405       .  A
C1121      H1128   1.084       .  S
C1122      C1123   1.418       .  A
C1123      C1124   1.400       .  A
C1123      C1130   1.510       .  S
C1124      C1125   1.403       .  A
C1124      H1129   1.085       .  S
C1125      C1126   1.414       .  A
C1126      C1127   1.508       .  S
C1127      H1131   1.111       .  S
C1127      H1132   1.108       .  S
C1127      H1133   1.110       .  S
C1130      H1134   1.105       .  S
C1130      H1135   1.111       .  S
C1130      H1136   1.110       .  S
C1137      C1138   1.408       .  A
C1137      C1142   1.403       .  A
C1137      H1144   1.084       .  S
C1138      C1139   1.423       .  A
C1139      C1140   1.407       .  A
C1139      C1146   1.508       .  S
C1140      C1141   1.399       .  A
C1140      H1145   1.084       .  S
C1141      C1142   1.411       .  A
C1142      C1143   1.508       .  S
C1143      H1147   1.111       .  S
C1143      H1148   1.110       .  S
C1143      H1149   1.109       .  S
C1146      H1150   1.111       .  S
C1146      H1151   1.109       .  S
C1146      H1152   1.111       .  S
C1153      C1154   1.408       .  A
C1153      C1158   1.404       .  A
C1153      H1160   1.084       .  S
C1154      C1155   1.420       .  A
C1155      C1156   1.405       .  A
C1155      C1162   1.508       .  S
C1156      C1157   1.402       .  A
C1156      H1161   1.084       .  S
C1157      C1158   1.410       .  A
C1158      C1159   1.508       .  S
C1159      H1163   1.111       .  S
C1159      H1164   1.111       .  S
C1159      H1165   1.109       .  S
C1162      H1166   1.110       .  S
C1162      H1167   1.110       .  S
C1162      H1168   1.111       .  S
C1169      C1170   1.401       .  A
C1169      C1174   1.406       .  A
C1169      H1176   1.084       .  S
C1170      C1171   1.412       .  A
C1171      C1172   1.403       .  A
C1171      C1178   1.508       .  S
C1172      C1173   1.407       .  A
C1172      H1177   1.084       .  S
C1173      C1174   1.420       .  A
C1174      C1175   1.508       .  S
C1175      H1179   1.111       .  S
C1175      H1180   1.111       .  S
C1175      H1181   1.109       .  S
C1178      H1182   1.110       .  S
C1178      H1183   1.109       .  S
C1178      H1184   1.111       .  S
C1185      C1186   1.399       .  A
C1185      C1190   1.406       .  A
C1185      H1192   1.084       .  S
C1186      C1187   1.407       .  A
C1187      C1188   1.401       .  A
C1187      C1194   1.507       .  S
C1188      C1189   1.409       .  A
C1188      H1193   1.083       .  S
C1189      C1190   1.424       .  A
C1190      C1191   1.508       .  S
C1191      H1195   1.111       .  S
C1191      H1196   1.110       .  S
C1191      H1197   1.110       .  S
C1194      H1198   1.111       .  S
C1194      H1199   1.110       .  S
C1194      H1200   1.111       .  S
C1201      C1202   1.407   1_554  A
C1201      C1206   1.405       .  A
C1201      H1208   1.084       .  S
C1203      C1204   1.405       .  A
C1203      C1210   1.509       .  S
C1204      H1209   1.084       .  S
C1205      C1206   1.415   1_556  A
C1206      C1207   1.509       .  S
C1207      H1211   1.111       .  S
C1207      H1212   1.107       .  S
C1210      H1215   1.111       .  S
C1210      H1216   1.111       .  S
C1217      C1218   1.406   1_556  A
C1217      C1222   1.404       .  A
C1217      H1224   1.084       .  S
C1219      C1220   1.406       .  A
C1219      C1226   1.509       .  S
C1220      H1225   1.084       .  S
C1221      C1222   1.416   1_554  A
C1222      C1223   1.509       .  S
C1223      H1227   1.111       .  S
C1223      H1229   1.110       .  S
C1226      H1230   1.106       .  S
C1226      H1232   1.111       .  S
C1233      C1238   1.406       .  A
C1233      H1240   1.083       .  S
C1234      C1235   1.418       .  A
C1235      C1236   1.399       .  A
C1235      C1242   1.510       .  S
C1236      C1237   1.403       .  A
C1236      H1241   1.084       .  S
C1238      C1239   1.508       .  S
C1239      H1243   1.111       .  S
C1239      H1245   1.110       .  S
C1242      H1246   1.110       .  S
C1242      H1248   1.111       .  S
C1249      C1250   1.409       .  A
C1249      C1254   1.407       .  A
C1249      H1256   1.083       .  S
C1251      C1252   1.401       .  A
C1251      C1258   1.509       .  S
C1252      H1257   1.084       .  S
C1253      C1254   1.416       .  A
C1254      C1255   1.508       .  S
C1255      H1259   1.111       .  S
C1255      H1261   1.110       .  S
C1258      H1262   1.110       .  S
C1258      H1264   1.111       .  S
C1265      C1266   1.398       .  A
C1265      C1270   1.406       .  A
C1265      H1272   1.084       .  S
C1266      C1267   1.410       .  A
C1267      C1268   1.401       .  A
C1267      C1274   1.509       .  S
C1268      C1269   1.410       .  A
C1268      H1273   1.084       .  S
C1269      C1270   1.425       .  A
C1270      C1271   1.508       .  S
C1271      H1275   1.111       .  S
C1271      H1276   1.110       .  S
C1271      H1277   1.110       .  S
C1274      H1278   1.110       .  S
C1274      H1279   1.108       .  S
C1274      H1280   1.110       .  S
C1281      C1282   1.407       .  A
C1281      C1286   1.403       .  A
C1281      H1288   1.084       .  S
C1282      C1283   1.420       .  A
C1283      C1284   1.406       .  A
C1283      C1290   1.508       .  S
C1284      C1285   1.402       .  A
C1284      H1289   1.084       .  S
C1285      C1286   1.414       .  A
C1286      C1287   1.508       .  S
C1287      H1291   1.110       .  S
C1287      H1292   1.110       .  S
C1287      H1293   1.108       .  S
C1290      H1294   1.111       .  S
C1290      H1295   1.109       .  S
C1290      H1296   1.111       .  S
C1297      C1298   1.403       .  A
C1297      C1302   1.402       .  A
C1297      H1304   1.085       .  S
C1298      C1299   1.420       .  A
C1299      C1300   1.404       .  A
C1299      C1306   1.509       .  S
C1300      C1301   1.401       .  A
C1300      H1305   1.085       .  S
C1301      C1302   1.417       .  A
C1302      C1303   1.508       .  S
C1303      H1307   1.111       .  S
C1303      H1308   1.110       .  S
C1303      H1309   1.108       .  S
C1306      H1310   1.106       .  S
C1306      H1311   1.111       .  S
C1306      H1312   1.110       .  S
C1313      C1314   1.403       .  A
C1313      C1318   1.402       .  A
C1313      H1320   1.085       .  S
C1314      C1315   1.419       .  A
C1315      C1316   1.405       .  A
C1315      C1322   1.508       .  S
C1316      C1317   1.402       .  A
C1316      H1321   1.085       .  S
C1317      C1318   1.416       .  A
C1318      C1319   1.508       .  S
C1319      H1323   1.111       .  S
C1319      H1324   1.110       .  S
C1319      H1325   1.108       .  S
C1322      H1326   1.107       .  S
C1322      H1327   1.111       .  S
C1322      H1328   1.110       .  S
C1329      C1330   1.398       .  A
C1329      C1334   1.404       .  A
C1329      H1336   1.084       .  S
C1330      C1331   1.412       .  A
C1331      C1332   1.403       .  A
C1331      C1338   1.508       .  S
C1332      C1333   1.408       .  A
C1332      H1337   1.084       .  S
C1333      C1334   1.424       .  A
C1334      C1335   1.509       .  S
C1335      H1339   1.111       .  S
C1335      H1340   1.111       .  S
C1335      H1341   1.110       .  S
C1338      H1342   1.110       .  S
C1338      H1343   1.107       .  S
C1338      H1344   1.110       .  S
C1345      C1346   1.404       .  A
C1345      C1350   1.405       .  A
C1345      H1352   1.084       .  S
C1346      C1347   1.415       .  A
C1347      C1348   1.407       .  A
C1347      C1354   1.507       .  S
C1348      C1349   1.406       .  A
C1348      H1353   1.084       .  S
C1349      C1350   1.418       .  A
C1350      C1351   1.508       .  S
C1351      H1355   1.111       .  S
C1351      H1356   1.111       .  S
C1351      H1357   1.109       .  S
C1354      H1358   1.110       .  S
C1354      H1359   1.109       .  S
C1354      H1360   1.111       .  S
C1361      C1362   1.405       .  A
C1361      C1366   1.404       .  A
C1361      H1368   1.084       .  S
C1363      C1364   1.407       .  A
C1363      C1370   1.508       .  S
C1364      H1369   1.083       .  S
C1365      C1366   1.420       .  A
C1366      C1367   1.509       .  S
C1367      H1371   1.111       .  S
C1367      H1373   1.110       .  S
C1370      H1374   1.110       .  S
C1370      H1376   1.111       .  S
C1377      C1378   1.398       .  A
C1377      C1382   1.406       .  A
C1377      H1384   1.084       .  S
C1378      C1379   1.408       .  A
C1379      C1380   1.403       .  A
C1379      C1386   1.507       .  S
C1380      C1381   1.410       .  A
C1380      H1385   1.083       .  S
C1381      C1382   1.425       .  A
C1382      C1383   1.508       .  S
C1383      H1387   1.111       .  S
C1383      H1388   1.110       .  S
C1383      H1389   1.110       .  S
C1386      H1390   1.110       .  S
C1386      H1391   1.110       .  S
C1386      H1392   1.111       .  S
C1393      C1394   1.407       .  A
C1393      C1398   1.403       .  A
C1393      H1400   1.084       .  S
C1394      C1395   1.420       .  A
C1395      C1396   1.404       .  A
C1395      C1402   1.508       .  S
C1396      C1397   1.400       .  A
C1396      H1401   1.084       .  S
C1397      C1398   1.410       .  A
C1398      C1399   1.508       .  S
C1399      H1403   1.111       .  S
C1399      H1404   1.109       .  S
C1399      H1405   1.110       .  S
C1402      H1406   1.109       .  S
C1402      H1407   1.111       .  S
C1402      H1408   1.111       .  S
C1409      C1414   1.402       .  A
C1409      H1416   1.084       .  S
C1410      C1411   1.417       .  A
C1411      C1412   1.406       .  A
C1411      C1418   1.509       .  S
C1412      C1413   1.408       .  A
C1412      H1417   1.083       .  S
C1414      C1415   1.509       .  S
C1415      H1419   1.111       .  S
C1415      H1421   1.110       .  S
C1418      H1422   1.110       .  S
C1418      H1424   1.111       .  S
C1425      C1426   1.402       .  A
C1425      C1430   1.405       .  A
C1425      H1432   1.084       .  S
C1426      C1427   1.414       .  A
C1427      C1428   1.402       .  A
C1427      C1434   1.508       .  S
C1428      C1429   1.405       .  A
C1428      H1433   1.084       .  S
C1429      C1430   1.418       .  A
C1430      C1431   1.508       .  S
C1431      H1435   1.111       .  S
C1431      H1436   1.109       .  S
C1431      H1437   1.111       .  S
C1434      H1438   1.110       .  S
C1434      H1439   1.108       .  S
C1434      H1440   1.110       .  S
C1441      C1442   1.400       .  A
C1441      C1446   1.406       .  A
C1441      H1448   1.084       .  S
C1442      C1443   1.411       .  A
C1443      C1444   1.402       .  A
C1443      C1450   1.508       .  S
C1444      C1445   1.409       .  A
C1444      H1449   1.084       .  S
C1445      C1446   1.422       .  A
C1446      C1447   1.508       .  S
C1447      H1451   1.111       .  S
C1447      H1452   1.110       .  S
C1447      H1453   1.110       .  S
C1450      H1454   1.110       .  S
C1450      H1455   1.109       .  S
C1450      H1456   1.110       .  S
C1457      C1458   1.405       .  A
C1457      C1462   1.403       .  A
C1457      H1464   1.084       .  S
C1459      C1460   1.406       .  A
C1459      C1466   1.509       .  S
C1460      C1461   1.405       .  A
C1460      H1465   1.084       .  S
C1462      C1463   1.505       .  S
C1463      H1467   1.111       .  S
C1463      H1469   1.110       .  S
C1466      H1470   1.110       .  S
C1466      H1472   1.111       .  S
C1473      C1474   1.403       .  A
C1473      C1478   1.405       .  A
C1473      H1480   1.084       .  S
C1474      C1475   1.414       .  A
C1475      C1476   1.403       .  A
C1475      C1482   1.508       .  S
C1476      C1477   1.407       .  A
C1476      H1481   1.084       .  S
C1477      C1478   1.419       .  A
C1478      C1479   1.508       .  S
C1479      H1483   1.111       .  S
C1479      H1484   1.109       .  S
C1479      H1485   1.111       .  S
C1482      H1486   1.110       .  S
C1482      H1487   1.108       .  S
C1482      H1488   1.111       .  S
C1489      C1490   1.400       .  A
C1489      C1494   1.408       .  A
C1489      H1496   1.084       .  S
C1490      C1491   1.409       .  A
C1491      C1492   1.404       .  A
C1491      C1498   1.507       .  S
C1492      C1493   1.410       .  A
C1492      H1497   1.083       .  S
C1493      C1494   1.423       .  A
C1494      C1495   1.508       .  S
C1495      H1499   1.111       .  S
C1495      H1500   1.109       .  S
C1495      H1501   1.110       .  S
C1498      H1502   1.110       .  S
C1498      H1503   1.110       .  S
C1498      H1504   1.111       .  S
C1505      C1510   1.406       .  A
C1505      H1512   1.083       .  S
C1506      C1507   1.419       .  A
C1507      C1508   1.407       .  A
C1507      C1514   1.510       .  S
C1508      C1509   1.407       .  A
C1508      H1513   1.084       .  S
C1510      C1511   1.509       .  S
C1511      H1515   1.111       .  S
C1511      H1517   1.106       .  S
C1514      H1518   1.108       .  S
C1514      H1520   1.111       .  S
C1521      C1522   1.407       .  A
C1521      C1526   1.404       .  A
C1521      H1528   1.084       .  S
C1522      C1523   1.420       .  A
C1523      C1524   1.406       .  A
C1523      C1530   1.508       .  S
C1524      C1525   1.401       .  A
C1524      H1529   1.084       .  S
C1525      C1526   1.411       .  A
C1526      C1527   1.507       .  S
C1527      H1531   1.111       .  S
C1527      H1532   1.110       .  S
C1527      H1533   1.108       .  S
C1530      H1534   1.111       .  S
C1530      H1535   1.109       .  S
C1530      H1536   1.111       .  S
C1537      C1538   1.406       .  A
C1537      C1542   1.402       .  A
C1537      H1544   1.084       .  S
C1538      C1539   1.420       .  A
C1539      C1540   1.405       .  A
C1539      C1546   1.508       .  S
C1540      C1541   1.401       .  A
C1540      H1545   1.084       .  S
C1541      C1542   1.412       .  A
C1542      C1543   1.508       .  S
C1543      H1547   1.111       .  S
C1543      H1548   1.111       .  S
C1543      H1549   1.109       .  S
C1546      H1550   1.111       .  S
C1546      H1551   1.110       .  S
C1546      H1552   1.111       .  S
C1553      C1554   1.409       .  A
C1553      C1558   1.401       .  A
C1553      H1560   1.084       .  S
C1554      C1555   1.425       .  A
C1555      C1556   1.409       .  A
C1555      C1562   1.508       .  S
C1556      C1557   1.400       .  A
C1556      H1561   1.084       .  S
C1557      C1558   1.410       .  A
C1558      C1559   1.509       .  S
C1559      H1563   1.110       .  S
C1559      H1564   1.108       .  S
C1559      H1565   1.110       .  S
C1562      H1566   1.110       .  S
C1562      H1567   1.110       .  S
C1562      H1568   1.111       .  S
C1569      C1570   1.409       .  A
C1569      C1574   1.405       .  A
C1569      H1576   1.084       .  S
C1570      C1571   1.422       .  A
C1571      C1572   1.405       .  A
C1571      C1578   1.508       .  S
C1572      C1573   1.400       .  A
C1572      H1577   1.084       .  S
C1573      C1574   1.409       .  A
C1574      C1575   1.507       .  S
C1575      H1579   1.111       .  S
C1575      H1580   1.109       .  S
C1575      H1581   1.110       .  S
C1578      H1582   1.109       .  S
C1578      H1583   1.111       .  S
C1578      H1584   1.111       .  S
