geometry optimzed in LAMMPS
_audit_creation_date              2020-11-30 
_audit_creation_method            'lammps2cif' 
_symmetry_space_group_name_H-M    'P1' 
_symmetry_Int_Tables_number       1 
_symmetry_cell_setting            triclinic 
loop_ 
_symmetry_equiv_pos_as_xyz 
  x,y,z 
_cell_length_a                    30.01883551210713 
_cell_length_b                    32.450882298185505 
_cell_length_c                    26.320333215715884 
_cell_angle_alpha                 89.9594341530687 
_cell_angle_beta                  89.71604583741133 
_cell_angle_gamma                 89.73411976236373 
loop_ 
_atom_site_label 
_atom_site_type_symbol 
_atom_site_fract_x 
_atom_site_fract_y 
_atom_site_fract_z 
_atom_site_charge 
C1          C  0.63544902  0.05603192  0.21664925     0.03180
C2          C  0.68131298  0.05688237  0.20681993    -0.12970
C3          C  0.69818091  0.07721895  0.16405926     0.00680
C4          C  0.66856358  0.09715668  0.13112414    -0.11500
C5          C  0.62246899  0.09732372  0.14110988     0.03170
C6          C  0.60592080  0.07649419  0.18406879    -0.10920
H7          H  0.70403135  0.04239151  0.23337598     0.08760
H8          H  0.68172852  0.11383608  0.09872179     0.06290
H9          H  0.57052670  0.07651935  0.19245604     0.06140
C10         C  0.63727073  0.29504964  0.39453297     0.03180
C11         C  0.60740782  0.27388541  0.42609688    -0.12970
C12         C  0.62370105  0.24974153  0.46633128     0.00680
C13         C  0.66982661  0.24662195  0.47421075    -0.11500
C14         C  0.69984844  0.26562596  0.44097285     0.03170
C15         C  0.68331538  0.29052763  0.40178822    -0.10920
H16         H  0.57187354  0.27631326  0.41939921     0.08760
H17         H  0.68259531  0.22801201  0.00511978     0.06290
H18         H  0.70628481  0.30568129  0.37600521     0.06140
C19         C  0.45278107  0.05427264  0.39226037     0.03180
C20         C  0.48271011  0.07455526  0.42439642    -0.12970
C21         C  0.46635792  0.09883645  0.46468401     0.00680
C22         C  0.42018412  0.10279073  0.47228790    -0.11500
C23         C  0.39018703  0.08439344  0.43891152     0.03170
C24         C  0.40672251  0.05965081  0.39949161    -0.10920
H25         H  0.51829455  0.07107171  0.41840561     0.08760
H26         H  0.40740185  0.12132741  0.00335503     0.06290
H27         H  0.38364380  0.04487610  0.37376564     0.06140
C28         C  0.45271283  0.29356704  0.21414632     0.03180
C29         C  0.48221597  0.27229765  0.18210068    -0.12970
C30         C  0.46622563  0.25254228  0.13835921     0.00680
C31         C  0.42054437  0.25450784  0.12701945    -0.11500
C32         C  0.39077075  0.27516071  0.15939770     0.03170
C33         C  0.40720777  0.29496558  0.20256612    -0.10920
H34         H  0.51701641  0.26990286  0.19223642     0.08760
H35         H  0.40763484  0.23818889  0.09437434     0.06290
H36         H  0.38423502  0.30972107  0.22883012     0.06140
In37       In  0.54454804  0.17371870  0.05291449     1.36870
C38         C  0.49629591  0.12268195  0.49733475     0.77630
O39         O  0.55476484  0.21542853  0.48533523    -0.60810
O40         O  0.60617157  0.20992938  0.03990653    -0.51730
C41         C  0.49568399  0.22640322  0.10700372     0.70300
O42         O  0.48348724  0.21190722  0.06501349    -0.46580
C43         C  0.59291369  0.12216385  0.10860719     0.75000
O44         O  0.48373697  0.13658616  0.03969046    -0.58440
O45         O  0.60548625  0.13589354  0.06619341    -0.48530
O46         O  0.53516399  0.13292695  0.48434128    -0.54870
C47         C  0.59372810  0.22502040  0.49825828     0.85180
O48         O  0.53406904  0.21520457  0.12067950    -0.56770
O49         O  0.55416018  0.13312548  0.12167367    -0.60060
C50         C  0.95144533  0.12593859  0.21149187     0.03180
C51         C  0.90539489  0.12127108  0.20456902    -0.12970
C52         C  0.88871063  0.09798853  0.16427244     0.00680
C53         C  0.91856040  0.07818683  0.13136404    -0.11500
C54         C  0.96475894  0.08154329  0.13853595     0.03170
C55         C  0.98122366  0.10559214  0.17869991    -0.10920
H56         H  0.88236099  0.13597513  0.23081623     0.08760
H57         H  0.90566326  0.05949294  0.10070927     0.06290
H58         H  0.01681475  0.10889628  0.18401905     0.06140
C59         C  0.95248921  0.22074058  0.38941854     0.03180
C60         C  0.98258519  0.24109027  0.42126332    -0.12970
C61         C  0.96682162  0.26176164  0.46485531     0.00680
C62         C  0.92097120  0.26139496  0.47631031    -0.11500
C63         C  0.89069510  0.24261986  0.44344285     0.03170
C64         C  0.90689079  0.22110354  0.40120944    -0.10920
H65         H  0.01760183  0.24205147  0.41115327     0.08760
H66         H  0.90834788  0.27794628  0.00913257     0.06290
H67         H  0.88360459  0.20670152  0.37539259     0.06140
C68         C  0.13841931  0.22329330  0.21077793     0.03180
C69         C  0.10829495  0.24315598  0.17820216    -0.12970
C70         C  0.12438732  0.26750064  0.13787523     0.00680
C71         C  0.17050477  0.27157301  0.13024946    -0.11500
C72         C  0.20066432  0.25232093  0.16291649     0.03170
C73         C  0.18438168  0.22883197  0.20347481    -0.10920
H74         H  0.07276537  0.23923794  0.18377352     0.08760
H75         H  0.18310133  0.29041458  0.09939197     0.06290
H76         H  0.20767595  0.21454728  0.22954880     0.06140
C77         C  0.13780206  0.12792517  0.38883729     0.03180
C78         C  0.10749340  0.10749079  0.42073016    -0.12970
C79         C  0.12292107  0.08691901  0.46442071     0.00680
C80         C  0.16869016  0.08742432  0.47587818    -0.11500
C81         C  0.19918471  0.10641882  0.44306246     0.03170
C82         C  0.18326608  0.12788122  0.40079946    -0.10920
H83         H  0.07257652  0.10638656  0.41057890     0.08760
H84         H  0.18109555  0.07087800  0.00870957     0.06290
H85         H  0.20672100  0.14245829  0.37505487     0.06140
In86       In  0.04452347  0.00770154  0.04907567     1.36870
C87         C  0.09404670  0.29087905  0.10493110     0.77630
O88         O  0.03377715  0.04755396  0.11807325    -0.60810
O89         O  0.98277632  0.04442415  0.06274636    -0.51730
C90         C  0.09306757  0.06091320  0.49538028     0.70300
O91         O  0.10512755  0.04598181  0.03724842    -0.46580
C92         C  0.99641497  0.28779766  0.49566158     0.75000
O93         O  0.10610683  0.30425325  0.06213228    -0.58440
O94         O  0.98408707  0.30265784  0.03758028    -0.48530
O95         O  0.05514735  0.30112772  0.11809309    -0.54870
C96         C  0.99488772  0.05785071  0.10534882     0.85180
O97         O  0.05475465  0.04995747  0.48144325    -0.56770
O98         O  0.03473711  0.29888876  0.48149995    -0.60060
C99         C  0.10170241  0.18444114  0.33961905    -0.09110
C100        C  0.12422339  0.14643153  0.34007089     0.07090
C101        C  0.14182380  0.13062269  0.29436213    -0.02870
C102        C  0.14136902  0.15476733  0.25063511    -0.07320
C103        C  0.12388293  0.19490614  0.25155039     0.06200
C104        C  0.10125748  0.20878711  0.29549705    -0.02350
Br105      Br  0.07421172  0.26236691  0.29916395    -0.02040
H106        H  0.08772525  0.19666388  0.37454974     0.10120
H107        H  0.15814928  0.14349292  0.21681506     0.08130
Br108      Br  0.17141953  0.07805548  0.29115005    -0.02470
C109        C  0.95039635  0.19449048  0.25119152    -0.09110
C110        C  0.96651788  0.15388269  0.25220780     0.07090
C111        C  0.98803685  0.13927827  0.29628915    -0.02870
C112        C  0.98771461  0.16351578  0.34044667    -0.07320
C113        C  0.96645068  0.20213086  0.34076764     0.06200
C114        C  0.95009238  0.21854002  0.29495874    -0.02350
Br115      Br  0.92220871  0.27187241  0.29171775    -0.02040
H116        H  0.93444152  0.20626904  0.21727214     0.10120
H117        H  0.00072041  0.15081772  0.37548683     0.08130
Br118      Br  0.01326955  0.08496257  0.30003875    -0.02470
C119        C  0.32447234  0.23048651  0.15135278    -0.09110
C120        C  0.34210307  0.27045073  0.15305812     0.07090
C121        C  0.31277981  0.30451719  0.15320207    -0.02930
C122        C  0.26672120  0.29808105  0.15485455    -0.07320
C123        C  0.24921696  0.25800343  0.15606455     0.06200
C124        C  0.27852624  0.22404743  0.15255150    -0.02350
Br125      Br  0.25772298  0.16827730  0.14814277    -0.02040
H126        H  0.34659228  0.20402822  0.15069414     0.10120
H127        H  0.24451957  0.32447104  0.15651407     0.08130
Br128      Br  0.33389517  0.02689936  0.15017107    -0.02470
C129        C  0.31361587  0.05629948  0.44701958    -0.09110
C130        C  0.34151168  0.09082932  0.44490046     0.07090
C131        C  0.32221452  0.13060908  0.44560139    -0.02870
C132        C  0.27585389  0.13505107  0.44803026    -0.07320
C133        C  0.24790477  0.10046645  0.44888570     0.06200
C134        C  0.26728929  0.06071922  0.44848177    -0.02350
Br135      Br  0.23260496  0.01124800  0.44417234    -0.02040
H136        H  0.32795994  0.02562945  0.44596445     0.10120
H137        H  0.26142156  0.16569825  0.44716237     0.08130
Br138      Br  0.35688404  0.17987055  0.43784025    -0.02470
C139        C  0.45392700  0.31889459  0.35261920    -0.09110
C140        C  0.46788096  0.02672810  0.35092502     0.07090
C141        C  0.48692573  0.04227418  0.30576331    -0.02870
C142        C  0.48661217  0.01813102  0.26161122    -0.07320
C143        C  0.46747402  0.31210788  0.26221749     0.06200
C144        C  0.45356299  0.29492578  0.30869949    -0.02350
Br145      Br  0.42903595  0.24047381  0.31272216    -0.02040
H146        H  0.43970258  0.30651077  0.38729265     0.10120
H147        H  0.49759862  0.03144704  0.22595387     0.08130
Br148      Br  0.50785725  0.09787150  0.30063782    -0.02470
C149        C  0.77654974  0.29333893  0.44840285    -0.09110
C150        C  0.74847341  0.25896489  0.44631807     0.07090
C151        C  0.76754061  0.21907029  0.44640893    -0.02870
C152        C  0.81385280  0.21437862  0.44838478    -0.07320
C153        C  0.84198384  0.24881035  0.44932567     0.06200
C154        C  0.82284434  0.28866465  0.44937836    -0.02350
Br155      Br  0.85783005  0.33798079  0.44511477    -0.02040
H156        H  0.76237799  0.32408006  0.44773978     0.10120
H157        H  0.82810790  0.18366348  0.44716631     0.08130
Br158      Br  0.73267392  0.16998123  0.43843321    -0.02470
C159        C  0.76508780  0.12127828  0.15468335    -0.09110
C160        C  0.74693853  0.08154332  0.15739651     0.07090
C161        C  0.77583680  0.04713955  0.15746481    -0.02870
C162        C  0.82197925  0.05304030  0.15806489    -0.07320
C163        C  0.84004080  0.09289051  0.15824422     0.06200
C164        C  0.81116489  0.12716630  0.15484585    -0.02350
Br165      Br  0.83281217  0.18259663  0.14916557    -0.02040
H166        H  0.74330115  0.14796709  0.15393031     0.10120
H167        H  0.84382875  0.02640935  0.15969750     0.08130
Br168      Br  0.75407248  0.32492726  0.15560669    -0.02470
C169        C  0.62378999  0.05356692  0.30940508    -0.09110
C170        C  0.62005640  0.03396146  0.26218885     0.07090
C171        C  0.61294296  0.99119073  0.26026501    -0.02870
C172        C  0.61336753  0.30142596  0.30514041    -0.07320
C173        C  0.62172165  0.32056689  0.35185847     0.06200
C174        C  0.62484493  0.03044625  0.35419427    -0.02350
Br175      Br  0.63572026  0.05847994  0.41706867    -0.02040
H176        H  0.62980761  0.08641624  0.31106897     0.10120
H177        H  0.61142448  0.26817005  0.30302371     0.08130
Br178      Br  0.60956365  0.29595235  0.19664581    -0.02470
C179        C  0.63544905  0.05603195  0.71664928     0.03180
C180        C  0.68131300  0.05688240  0.70681998    -0.12970
C181        C  0.69818095  0.07721898  0.66405931     0.00680
C182        C  0.66856362  0.09715671  0.63112418    -0.11500
C183        C  0.62246903  0.09732374  0.64110990     0.03170
C184        C  0.60592083  0.07649422  0.68406880    -0.10920
H185        H  0.70403137  0.04239155  0.73337604     0.08760
H186        H  0.68172857  0.11383611  0.59872183     0.06290
H187        H  0.57052673  0.07651937  0.69245604     0.06140
C188        C  0.63727072  0.29504964  0.89453299     0.03180
C189        C  0.60740781  0.27388541  0.92609689    -0.12970
C190        C  0.62370104  0.24974151  0.96633128     0.00680
C191        C  0.66982660  0.24662192  0.97421073    -0.11500
C192        C  0.69984843  0.26562594  0.94097284     0.03170
C193        C  0.68331537  0.29052762  0.90178823    -0.10920
H194        H  0.57187353  0.27631327  0.91939923     0.08760
H195        H  0.68259532  0.22801205  0.50511981     0.06290
H196        H  0.70628480  0.30568128  0.87600522     0.06140
C197        C  0.45278100  0.05427264  0.89226038     0.03180
C198        C  0.48271006  0.07455526  0.92439641    -0.12970
C199        C  0.46635789  0.09883644  0.96468402     0.00680
C200        C  0.42018410  0.10279073  0.97228794    -0.11500
C201        C  0.39018698  0.08439347  0.93891156     0.03170
C202        C  0.40672244  0.05965083  0.89949164    -0.10920
H203        H  0.51829449  0.07107169  0.91840559     0.08760
H204        H  0.40740186  0.12132741  0.50335498     0.06290
H205        H  0.38364371  0.04487614  0.87376569     0.06140
C206        C  0.45271280  0.29356700  0.71414634     0.03180
C207        C  0.48221596  0.27229762  0.68210072    -0.12970
C208        C  0.46622566  0.25254227  0.63835922     0.00680
C209        C  0.42054441  0.25450784  0.62701941    -0.11500
C210        C  0.39077076  0.27516070  0.65939764     0.03170
C211        C  0.40720775  0.29496554  0.70256610    -0.10920
H212        H  0.51701639  0.26990282  0.69223649     0.08760
H213        H  0.40763490  0.23818891  0.59437427     0.06290
H214        H  0.38423498  0.30972102  0.72883009     0.06140
In215      In  0.54454807  0.17371870  0.55291450     1.36870
C216        C  0.49629588  0.12268195  0.99733475     0.77630
O217        O  0.55476480  0.21542855  0.98533525    -0.60810
O218        O  0.60617158  0.20992942  0.53990655    -0.51730
C219        C  0.49568402  0.22640322  0.60700372     0.70300
O220        O  0.48348729  0.21190725  0.56501347    -0.46580
C221        C  0.59291373  0.12216386  0.60860720     0.75000
O222        O  0.48373697  0.13658620  0.53969043    -0.58440
O223        O  0.60548630  0.13589358  0.56619343    -0.48530
O224        O  0.53516394  0.13292698  0.98434124    -0.54870
C225        C  0.59372809  0.22502039  0.99825828     0.85180
O226        O  0.53406906  0.21520453  0.62067954    -0.56770
O227        O  0.55416021  0.13312546  0.62167365    -0.60060
C228        C  0.95144539  0.12593848  0.71149199     0.03180
C229        C  0.90539495  0.12127100  0.70456913    -0.12970
C230        C  0.88871068  0.09798849  0.66427252     0.00680
C231        C  0.91856044  0.07818679  0.63136411    -0.11500
C232        C  0.96475898  0.08154323  0.63853603     0.03170
C233        C  0.98122371  0.10559204  0.67870002    -0.10920
H234        H  0.88236106  0.13597506  0.73081635     0.08760
H235        H  0.90566329  0.05949293  0.60070932     0.06290
H236        H  0.01681481  0.10889616  0.68401917     0.06140
C237        C  0.95248924  0.22074049  0.88941864     0.03180
C238        C  0.98258521  0.24109020  0.92126341    -0.12970
C239        C  0.96682162  0.26176161  0.96485536     0.00680
C240        C  0.92097119  0.26139495  0.97631033    -0.11500
C241        C  0.89069510  0.24261983  0.94344287     0.03170
C242        C  0.90689081  0.22110348  0.90120950    -0.10920
H243        H  0.01760185  0.24205138  0.91115339     0.08760
H244        H  0.90834790  0.27794627  0.50913258     0.06290
H245        H  0.88360462  0.20670145  0.87539263     0.06140
C246        C  0.13841937  0.22329320  0.71077783     0.03180
C247        C  0.10829500  0.24315588  0.67820206    -0.12970
C248        C  0.12438734  0.26750055  0.63787514     0.00680
C249        C  0.17050479  0.27157294  0.63024935    -0.11500
C250        C  0.20066435  0.25232086  0.66291635     0.03170
C251        C  0.18438174  0.22883189  0.70347468    -0.10920
H252        H  0.07276542  0.23923782  0.68377344     0.08760
H253        H  0.18310134  0.29041452  0.59939186     0.06290
H254        H  0.20767603  0.21454721  0.72954864     0.06140
C255        C  0.13780209  0.12792521  0.88883734     0.03180
C256        C  0.10749340  0.10749081  0.92073017    -0.12970
C257        C  0.12292105  0.08691906  0.96442075     0.00680
C258        C  0.16869012  0.08742442  0.97587829    -0.11500
C259        C  0.19918469  0.10641893  0.94306260     0.03170
C260        C  0.18326608  0.12788132  0.90079959    -0.10920
H261        H  0.07257654  0.10638654  0.91057884     0.08760
H262        H  0.18109560  0.07087791  0.50870945     0.06290
H263        H  0.20672102  0.14245841  0.87505503     0.06140
In264      In  0.04452348  0.00770151  0.54907565     1.36870
C265        C  0.09404671  0.29087899  0.60493104     0.77630
O266        O  0.03377720  0.04755390  0.61807326    -0.60810
O267        O  0.98277634  0.04442412  0.56274640    -0.51730
C268        C  0.09306755  0.06091323  0.99538030     0.70300
O269        O  0.10512759  0.04598176  0.53724838    -0.46580
C270        C  0.99641496  0.28779765  0.99566162     0.75000
O271        O  0.10610683  0.30425319  0.56213223    -0.58440
O272        O  0.98408709  0.30265781  0.53758027    -0.48530
O273        O  0.05514738  0.30112766  0.61809306    -0.54870
C274        C  0.99488776  0.05785066  0.60534887     0.85180
O275        O  0.05475465  0.04995747  0.98144324    -0.56770
O276        O  0.03473711  0.29888873  0.98150000    -0.60060
C277        C  0.10170236  0.18444105  0.83961893    -0.09110
C278        C  0.12422347  0.14643151  0.84007088     0.07090
C279        C  0.14182403  0.13062268  0.79436218    -0.02870
C280        C  0.14136926  0.15476728  0.75063512    -0.07320
C281        C  0.12388303  0.19490605  0.75155031     0.06200
C282        C  0.10125744  0.20878698  0.79549690    -0.02350
Br283      Br  0.07421150  0.26236671  0.79916368    -0.02040
H284        H  0.08772508  0.19666378  0.87454956     0.10120
H285        H  0.15814961  0.14349288  0.71681514     0.08130
Br286      Br  0.17141997  0.07805556  0.79115024    -0.02470
C287        C  0.95039652  0.19449038  0.75119162    -0.09110
C288        C  0.96651795  0.15388256  0.75220794     0.07090
C289        C  0.98803681  0.13927809  0.79628934    -0.02870
C290        C  0.98771456  0.16351560  0.84044685    -0.07320
C291        C  0.96645074  0.20213073  0.84076777     0.06200
C292        C  0.95009255  0.21853992  0.79495884    -0.02350
Br293      Br  0.92220902  0.27187237  0.79171779    -0.02040
H294        H  0.93444177  0.20626897  0.71727221     0.10120
H295        H  0.00072027  0.15081751  0.87548704     0.08130
Br296      Br  0.01326936  0.08496234  0.80003899    -0.02470
C297        C  0.32447237  0.23048648  0.65135259    -0.09110
C298        C  0.34210309  0.27045071  0.65305802     0.07090
C299        C  0.31277982  0.30451716  0.65320201    -0.02930
C300        C  0.26672121  0.29808101  0.65485447    -0.07320
C301        C  0.24921699  0.25800338  0.65606440     0.06200
C302        C  0.27852628  0.22404739  0.65255129    -0.02350
Br303      Br  0.25772303  0.16827727  0.64814245    -0.02040
H304        H  0.34659232  0.20402820  0.65069392     0.10120
H305        H  0.24451958  0.32447099  0.65651403     0.08130
Br306      Br  0.33389514  0.02689931  0.65017112    -0.02470
C307        C  0.31361582  0.05629954  0.94701963    -0.09110
C308        C  0.34151164  0.09082937  0.94490054     0.07090
C309        C  0.32221451  0.13060914  0.94560155    -0.02870
C310        C  0.27585388  0.13505115  0.94803046    -0.07320
C311        C  0.24790474  0.10046654  0.94888587     0.06200
C312        C  0.26728924  0.06071930  0.94848186    -0.02350
Br313      Br  0.23260488  0.01124810  0.94417237    -0.02040
H314        H  0.32795987  0.02562950  0.94596445     0.10120
H315        H  0.26142156  0.16569833  0.94716262     0.08130
Br316      Br  0.35688404  0.17987060  0.93784046    -0.02470
C317        C  0.45392687  0.31889459  0.85261921    -0.09110
C318        C  0.46788085  0.02672809  0.85092504     0.07090
C319        C  0.48692567  0.04227414  0.80576333    -0.02870
C320        C  0.48661213  0.01813095  0.76161125    -0.07320
C321        C  0.46747396  0.31210784  0.76221752     0.06200
C322        C  0.45356288  0.29492577  0.80869952    -0.02350
Br323      Br  0.42903579  0.24047382  0.81272218    -0.02040
H324        H  0.43970241  0.30651080  0.88729265     0.10120
H325        H  0.49759861  0.03144695  0.72595391     0.08130
Br326      Br  0.50785724  0.09787144  0.80063782    -0.02470
C327        C  0.77654973  0.29333891  0.94840284    -0.09110
C328        C  0.74847340  0.25896487  0.94631805     0.07090
C329        C  0.76754060  0.21907027  0.94640890    -0.02870
C330        C  0.81385279  0.21437860  0.94838476    -0.07320
C331        C  0.84198384  0.24881033  0.94932566     0.06200
C332        C  0.82284433  0.28866463  0.94937836    -0.02350
Br333      Br  0.85783004  0.33798077  0.94511477    -0.02040
H334        H  0.76237798  0.32408004  0.94773978     0.10120
H335        H  0.82810789  0.18366346  0.94716629     0.08130
Br336      Br  0.73267392  0.16998121  0.93843317    -0.02470
C337        C  0.76508785  0.12127830  0.65468345    -0.09110
C338        C  0.74693857  0.08154334  0.65739657     0.07090
C339        C  0.77583682  0.04713956  0.65746484    -0.02870
C340        C  0.82197928  0.05304029  0.65806493    -0.07320
C341        C  0.84004085  0.09289049  0.65824430     0.06200
C342        C  0.81116495  0.12716630  0.65484597    -0.02350
Br343      Br  0.83281226  0.18259662  0.64916575    -0.02040
H344        H  0.74330122  0.14796711  0.65393044     0.10120
H345        H  0.84382876  0.02640933  0.65969753     0.08130
Br346      Br  0.75407247  0.32492729  0.65560670    -0.02470
C347        C  0.62379003  0.05356695  0.80940511    -0.09110
C348        C  0.62005641  0.03396149  0.76218888     0.07090
C349        C  0.61294293  0.99119077  0.76026503    -0.02870
C350        C  0.61336750  0.30142599  0.80514043    -0.07320
C351        C  0.62172165  0.32056691  0.85185850     0.06200
C352        C  0.62484496  0.03044627  0.85419430    -0.02350
Br353      Br  0.63572031  0.05847994  0.91706870    -0.02040
H354        H  0.62980767  0.08641626  0.81106902     0.10120
H355        H  0.61142442  0.26817009  0.80302372     0.08130
Br356      Br  0.60956360  0.29595242  0.69664583    -0.02470
C357        C  0.63544903  0.38936526  0.21664925     0.03180
C358        C  0.68131298  0.39021571  0.20681993    -0.12970
C359        C  0.69818091  0.41055228  0.16405925     0.00680
C360        C  0.66856358  0.43049001  0.13112413    -0.11500
C361        C  0.62246899  0.43065705  0.14110988     0.03170
C362        C  0.60592080  0.40982753  0.18406879    -0.10920
H363        H  0.70403136  0.37572486  0.23337598     0.08760
H364        H  0.68172852  0.44716941  0.09872178     0.06290
H365        H  0.57052671  0.40985269  0.19245604     0.06140
C366        C  0.63727072  0.62838297  0.39453296     0.03180
C367        C  0.60740782  0.60721874  0.42609687    -0.12970
C368        C  0.62370105  0.58307486  0.46633127     0.00680
C369        C  0.66982660  0.57995528  0.47421073    -0.11500
C370        C  0.69984843  0.59895929  0.44097284     0.03170
C371        C  0.68331537  0.62386095  0.40178821    -0.10920
H372        H  0.57187353  0.60964659  0.41939920     0.08760
H373        H  0.68259531  0.56134534  0.00511978     0.06290
H374        H  0.70628480  0.63901461  0.37600520     0.06140
C375        C  0.45278107  0.38760596  0.39226038     0.03180
C376        C  0.48271011  0.40788858  0.42439643    -0.12970
C377        C  0.46635792  0.43216977  0.46468402     0.00680
C378        C  0.42018413  0.43612405  0.47228792    -0.11500
C379        C  0.39018703  0.41772677  0.43891154     0.03170
C380        C  0.40672251  0.39298413  0.39949163    -0.10920
H381        H  0.51829455  0.40440503  0.41840562     0.08760
H382        H  0.40740185  0.45466075  0.00335503     0.06290
H383        H  0.38364380  0.37820943  0.37376566     0.06140
C384        C  0.45271283  0.62690036  0.21414632     0.03180
C385        C  0.48221597  0.60563097  0.18210068    -0.12970
C386        C  0.46622564  0.58587561  0.13835921     0.00680
C387        C  0.42054438  0.58784117  0.12701945    -0.11500
C388        C  0.39077075  0.60849404  0.15939769     0.03170
C389        C  0.40720777  0.62829891  0.20256613    -0.10920
H390        H  0.51701641  0.60323617  0.19223643     0.08760
H391        H  0.40763485  0.57152222  0.09437433     0.06290
H392        H  0.38423502  0.64305439  0.22883013     0.06140
In393      In  0.54454804  0.50705203  0.05291449     1.36870
C394        C  0.49629591  0.45601528  0.49733476     0.77630
O395        O  0.55476483  0.54876186  0.48533523    -0.60810
O396        O  0.60617157  0.54326271  0.03990653    -0.51730
C397        C  0.49568399  0.55973655  0.10700371     0.70300
O398        O  0.48348724  0.54524055  0.06501349    -0.46580
C399        C  0.59291369  0.45549717  0.10860719     0.75000
O400        O  0.48373697  0.46991949  0.03969046    -0.58440
O401        O  0.60548625  0.46922687  0.06619340    -0.48530
O402        O  0.53516399  0.46626028  0.48434129    -0.54870
C403        C  0.59372810  0.55835373  0.49825827     0.85180
O404        O  0.53406904  0.54853789  0.12067951    -0.56770
O405        O  0.55416018  0.46645881  0.12167367    -0.60060
C406        C  0.95144533  0.45927192  0.21149186     0.03180
C407        C  0.90539489  0.45460442  0.20456901    -0.12970
C408        C  0.88871063  0.43132187  0.16427243     0.00680
C409        C  0.91856040  0.41152016  0.13136403    -0.11500
C410        C  0.96475894  0.41487663  0.13853594     0.03170
C411        C  0.98122366  0.43892548  0.17869991    -0.10920
H412        H  0.88236099  0.46930847  0.23081622     0.08760
H413        H  0.90566326  0.39282627  0.10070926     0.06290
H414        H  0.01681475  0.44222962  0.18401905     0.06140
C415        C  0.95248920  0.55407390  0.38941854     0.03180
C416        C  0.98258519  0.57442359  0.42126332    -0.12970
C417        C  0.96682161  0.59509496  0.46485531     0.00680
C418        C  0.92097119  0.59472828  0.47631031    -0.11500
C419        C  0.89069509  0.57595318  0.44344285     0.03170
C420        C  0.90689078  0.55443686  0.40120944    -0.10920
H421        H  0.01760182  0.57538479  0.41115328     0.08760
H422        H  0.90834788  0.61127961  0.00913258     0.06290
H423        H  0.88360458  0.54003484  0.37539259     0.06140
C424        C  0.13841932  0.55662663  0.21077794     0.03180
C425        C  0.10829496  0.57648932  0.17820217    -0.12970
C426        C  0.12438732  0.60083398  0.13787524     0.00680
C427        C  0.17050478  0.60490635  0.13024947    -0.11500
C428        C  0.20066432  0.58565427  0.16291649     0.03170
C429        C  0.18438169  0.56216531  0.20347481    -0.10920
H430        H  0.07276537  0.57257127  0.18377354     0.08760
H431        H  0.18310133  0.62374792  0.09939197     0.06290
H432        H  0.20767596  0.54788062  0.22954879     0.06140
C433        C  0.13780207  0.46125851  0.38883732     0.03180
C434        C  0.10749340  0.44082413  0.42073018    -0.12970
C435        C  0.12292107  0.42025235  0.46442073     0.00680
C436        C  0.16869016  0.42075767  0.47587821    -0.11500
C437        C  0.19918471  0.43975217  0.44306249     0.03170
C438        C  0.18326609  0.46121457  0.40079949    -0.10920
H439        H  0.07257653  0.43971990  0.41057890     0.08760
H440        H  0.18109555  0.40421134  0.00870956     0.06290
H441        H  0.20672101  0.47579165  0.37505491     0.06140
In442      In  0.04452347  0.34103487  0.04907567     1.36870
C443        C  0.09404670  0.62421239  0.10493111     0.77630
O444        O  0.03377715  0.38088729  0.11807324    -0.60810
O445        O  0.98277632  0.37775749  0.06274635    -0.51730
C446        C  0.09306757  0.39424653  0.49538030     0.70300
O447        O  0.10512755  0.37931515  0.03724841    -0.46580
C448        C  0.99641496  0.62113098  0.49566158     0.75000
O449        O  0.10610683  0.63758659  0.06213229    -0.58440
O450        O  0.98408706  0.63599117  0.03758029    -0.48530
O451        O  0.05514735  0.63446106  0.11809310    -0.54870
C452        C  0.99488773  0.39118404  0.10534882     0.85180
O453        O  0.05475465  0.38329082  0.48144327    -0.56770
O454        O  0.03473710  0.63222208  0.48149995    -0.60060
C455        C  0.10170241  0.51777447  0.33961906    -0.09110
C456        C  0.12422341  0.47976487  0.34007091     0.07090
C457        C  0.14182384  0.46395603  0.29436216    -0.02870
C458        C  0.14136906  0.48810067  0.25063513    -0.07320
C459        C  0.12388295  0.52823948  0.25155040     0.06200
C460        C  0.10125748  0.54212043  0.29549705    -0.02350
Br461      Br  0.07421169  0.59570022  0.29916394    -0.02040
H462        H  0.08772523  0.52999720  0.37454973     0.10120
H463        H  0.15814934  0.47682626  0.21681509     0.08130
Br464      Br  0.17141960  0.41138884  0.29115009    -0.02470
C465        C  0.95039635  0.52782381  0.25119152    -0.09110
C466        C  0.96651788  0.48721603  0.25220780     0.07090
C467        C  0.98803685  0.47261160  0.29628915    -0.02870
C468        C  0.98771461  0.49684911  0.34044667    -0.07320
C469        C  0.96645068  0.53546419  0.34076764     0.06200
C470        C  0.95009238  0.55187335  0.29495874    -0.02350
Br471      Br  0.92220871  0.60520574  0.29171776    -0.02040
H472        H  0.93444152  0.53960238  0.21727214     0.10120
H473        H  0.00072041  0.48415104  0.37548683     0.08130
Br474      Br  0.01326955  0.41829590  0.30003874    -0.02470
C475        C  0.32447234  0.56381984  0.15135276    -0.09110
C476        C  0.34210308  0.60378406  0.15305811     0.07090
C477        C  0.31277982  0.63785053  0.15320207    -0.02930
C478        C  0.26672120  0.63141439  0.15485455    -0.07320
C479        C  0.24921697  0.59133677  0.15606454     0.06200
C480        C  0.27852625  0.55738076  0.15255148    -0.02350
Br481      Br  0.25772298  0.50161064  0.14814272    -0.02040
H482        H  0.34659228  0.53736155  0.15069411     0.10120
H483        H  0.24451958  0.65780438  0.15651408     0.08130
Br484      Br  0.33389517  0.36023268  0.15017107    -0.02470
C485        C  0.31361587  0.38963282  0.44701960    -0.09110
C486        C  0.34151168  0.42416265  0.44490048     0.07090
C487        C  0.32221453  0.46394242  0.44560143    -0.02870
C488        C  0.27585390  0.46838441  0.44803031    -0.07320
C489        C  0.24790477  0.43379980  0.44888574     0.06200
C490        C  0.26728929  0.39405256  0.44848179    -0.02350
Br491      Br  0.23260495  0.34458134  0.44417235    -0.02040
H492        H  0.32795994  0.35896278  0.44596445     0.10120
H493        H  0.26142157  0.49903159  0.44716242     0.08130
Br494      Br  0.35688405  0.51320388  0.43784030    -0.02470
C495        C  0.45392702  0.65222790  0.35261921    -0.09110
C496        C  0.46788095  0.36006142  0.35092503     0.07090
C497        C  0.48692572  0.37560750  0.30576332    -0.02870
C498        C  0.48661217  0.35146434  0.26161123    -0.07320
C499        C  0.46747403  0.64544119  0.26221749     0.06200
C500        C  0.45356300  0.62825909  0.30869950    -0.02350
Br501      Br  0.42903596  0.57380713  0.31272216    -0.02040
H502        H  0.43970259  0.63984409  0.38729265     0.10120
H503        H  0.49759861  0.36478035  0.22595388     0.08130
Br504      Br  0.50785725  0.43120482  0.30063783    -0.02470
C505        C  0.77654973  0.62667226  0.44840284    -0.09110
C506        C  0.74847340  0.59229822  0.44631805     0.07090
C507        C  0.76754060  0.55240362  0.44640892    -0.02870
C508        C  0.81385279  0.54771195  0.44838478    -0.07320
C509        C  0.84198383  0.58214368  0.44932567     0.06200
C510        C  0.82284433  0.62199798  0.44937835    -0.02350
Br511      Br  0.85783005  0.67131412  0.44511476    -0.02040
H512        H  0.76237798  0.65741339  0.44773976     0.10120
H513        H  0.82810789  0.51699681  0.44716632     0.08130
Br514      Br  0.73267391  0.50331456  0.43843321    -0.02470
C515        C  0.76508780  0.45461162  0.15468334    -0.09110
C516        C  0.74693853  0.41487666  0.15739650     0.07090
C517        C  0.77583680  0.38047289  0.15746480    -0.02870
C518        C  0.82197926  0.38637364  0.15806488    -0.07320
C519        C  0.84004080  0.42622384  0.15824421     0.06200
C520        C  0.81116489  0.46049964  0.15484584    -0.02350
Br521      Br  0.83281217  0.51592996  0.14916556    -0.02040
H522        H  0.74330115  0.48130042  0.15393030     0.10120
H523        H  0.84382875  0.35974269  0.15969750     0.08130
Br524      Br  0.75407247  0.65826060  0.15560669    -0.02470
C525        C  0.62379000  0.38690026  0.30940508    -0.09110
C526        C  0.62005640  0.36729480  0.26218886     0.07090
C527        C  0.61294296  0.32452408  0.26026502    -0.02870
C528        C  0.61336752  0.63475929  0.30514039    -0.07320
C529        C  0.62172165  0.65390022  0.35185846     0.06200
C530        C  0.62484495  0.36377960  0.35419428    -0.02350
Br531      Br  0.63572028  0.39181329  0.41706867    -0.02040
H532        H  0.62980763  0.41974958  0.31106898     0.10120
H533        H  0.61142447  0.60150338  0.30302370     0.08130
Br534      Br  0.60956364  0.62928569  0.19664580    -0.02470
C535        C  0.63544905  0.38936530  0.71664930     0.03180
C536        C  0.68131301  0.39021575  0.70681999    -0.12970
C537        C  0.69818095  0.41055232  0.66405932     0.00680
C538        C  0.66856362  0.43049005  0.63112419    -0.11500
C539        C  0.62246903  0.43065708  0.64110991     0.03170
C540        C  0.60592083  0.40982756  0.68406882    -0.10920
H541        H  0.70403138  0.37572490  0.73337605     0.08760
H542        H  0.68172857  0.44716945  0.59872184     0.06290
H543        H  0.57052674  0.40985271  0.69245606     0.06140
C544        C  0.63727072  0.62838296  0.89453298     0.03180
C545        C  0.60740781  0.60721873  0.92609689    -0.12970
C546        C  0.62370104  0.58307484  0.96633128     0.00680
C547        C  0.66982660  0.57995525  0.97421073    -0.11500
C548        C  0.69984843  0.59895927  0.94097284     0.03170
C549        C  0.68331537  0.62386094  0.90178823    -0.10920
H550        H  0.57187353  0.60964660  0.91939923     0.08760
H551        H  0.68259531  0.56134538  0.50511980     0.06290
H552        H  0.70628480  0.63901461  0.87600522     0.06140
C553        C  0.45278100  0.38760598  0.89226038     0.03180
C554        C  0.48271006  0.40788859  0.92439642    -0.12970
C555        C  0.46635788  0.43216977  0.96468402     0.00680
C556        C  0.42018410  0.43612407  0.97228794    -0.11500
C557        C  0.39018698  0.41772680  0.93891156     0.03170
C558        C  0.40672244  0.39298416  0.89949164    -0.10920
H559        H  0.51829449  0.40440502  0.91840560     0.08760
H560        H  0.40740187  0.45466073  0.50335500     0.06290
H561        H  0.38364371  0.37820947  0.87376568     0.06140
C562        C  0.45271280  0.62690034  0.71414633     0.03180
C563        C  0.48221596  0.60563096  0.68210071    -0.12970
C564        C  0.46622565  0.58587561  0.63835921     0.00680
C565        C  0.42054441  0.58784118  0.62701941    -0.11500
C566        C  0.39077076  0.60849403  0.65939764     0.03170
C567        C  0.40720775  0.62829888  0.70256610    -0.10920
H568        H  0.51701639  0.60323616  0.69223648     0.08760
H569        H  0.40763490  0.57152224  0.59437426     0.06290
H570        H  0.38423498  0.64305436  0.72883008     0.06140
In571      In  0.54454807  0.50705204  0.55291450     1.36870
C572        C  0.49629588  0.45601528  0.99733475     0.77630
O573        O  0.55476481  0.54876188  0.98533525    -0.60810
O574        O  0.60617157  0.54326275  0.53990654    -0.51730
C575        C  0.49568402  0.55973656  0.60700372     0.70300
O576        O  0.48348729  0.54524058  0.56501347    -0.46580
C577        C  0.59291373  0.45549720  0.60860721     0.75000
O578        O  0.48373698  0.46991953  0.53969044    -0.58440
O579        O  0.60548631  0.46922692  0.56619344    -0.48530
O580        O  0.53516394  0.46626031  0.98434125    -0.54870
C581        C  0.59372809  0.55835371  0.99825828     0.85180
O582        O  0.53406906  0.54853787  0.62067954    -0.56770
O583        O  0.55416021  0.46645880  0.62167366    -0.60060
C584        C  0.95144539  0.45927182  0.71149199     0.03180
C585        C  0.90539496  0.45460435  0.70456913    -0.12970
C586        C  0.88871068  0.43132183  0.66427252     0.00680
C587        C  0.91856044  0.41152013  0.63136411    -0.11500
C588        C  0.96475898  0.41487657  0.63853603     0.03170
C589        C  0.98122371  0.43892538  0.67870002    -0.10920
H590        H  0.88236107  0.46930840  0.73081635     0.08760
H591        H  0.90566329  0.39282627  0.60070932     0.06290
H592        H  0.01681481  0.44222950  0.68401917     0.06140
C593        C  0.95248924  0.55407382  0.88941865     0.03180
C594        C  0.98258521  0.57442353  0.92126343    -0.12970
C595        C  0.96682162  0.59509494  0.96485538     0.00680
C596        C  0.92097119  0.59472827  0.97631034    -0.11500
C597        C  0.89069510  0.57595316  0.94344288     0.03170
C598        C  0.90689081  0.55443681  0.90120950    -0.10920
H599        H  0.01760185  0.57538471  0.91115340     0.08760
H600        H  0.90834789  0.61127960  0.50913257     0.06290
H601        H  0.88360463  0.54003478  0.87539264     0.06140
C602        C  0.13841937  0.55662652  0.71077782     0.03180
C603        C  0.10829500  0.57648920  0.67820205    -0.12970
C604        C  0.12438734  0.60083387  0.63787513     0.00680
C605        C  0.17050479  0.60490626  0.63024934    -0.11500
C606        C  0.20066435  0.58565418  0.66291634     0.03170
C607        C  0.18438174  0.56216521  0.70347467    -0.10920
H608        H  0.07276541  0.57257114  0.68377343     0.08760
H609        H  0.18310133  0.62374784  0.59939185     0.06290
H610        H  0.20767603  0.54788053  0.72954864     0.06140
C611        C  0.13780208  0.46125854  0.88883733     0.03180
C612        C  0.10749340  0.44082414  0.92073016    -0.12970
C613        C  0.12292105  0.42025239  0.96442075     0.00680
C614        C  0.16869012  0.42075775  0.97587829    -0.11500
C615        C  0.19918469  0.43975226  0.94306259     0.03170
C616        C  0.18326608  0.46121466  0.90079958    -0.10920
H617        H  0.07257654  0.43971987  0.91057884     0.08760
H618        H  0.18109560  0.40421125  0.50870947     0.06290
H619        H  0.20672102  0.47579174  0.87505502     0.06140
In620      In  0.04452348  0.34103485  0.54907567     1.36870
C621        C  0.09404671  0.62421230  0.60493103     0.77630
O622        O  0.03377720  0.38088725  0.61807326    -0.60810
O623        O  0.98277633  0.37775745  0.56274641    -0.51730
C624        C  0.09306755  0.39424656  0.99538029     0.70300
O625        O  0.10512759  0.37931509  0.53724839    -0.46580
C626        C  0.99641496  0.62113098  0.99566164     0.75000
O627        O  0.10610683  0.63758652  0.56213222    -0.58440
O628        O  0.98408708  0.63599114  0.53758026    -0.48530
O629        O  0.05514737  0.63446098  0.61809305    -0.54870
C630        C  0.99488776  0.39118400  0.60534887     0.85180
O631        O  0.05475465  0.38329080  0.98144323    -0.56770
O632        O  0.03473711  0.63222206  0.98150001    -0.60060
C633        C  0.10170236  0.51777438  0.83961892    -0.09110
C634        C  0.12422346  0.47976484  0.84007087     0.07090
C635        C  0.14182402  0.46395600  0.79436217    -0.02870
C636        C  0.14136925  0.48810060  0.75063511    -0.07320
C637        C  0.12388303  0.52823937  0.75155030     0.06200
C638        C  0.10125744  0.54212031  0.79549689    -0.02350
Br639      Br  0.07421151  0.59570004  0.79916367    -0.02040
H640        H  0.08772508  0.52999711  0.87454955     0.10120
H641        H  0.15814960  0.47682621  0.71681513     0.08130
Br642      Br  0.17141995  0.41138888  0.79115023    -0.02470
C643        C  0.95039654  0.52782372  0.75119163    -0.09110
C644        C  0.96651796  0.48721590  0.75220794     0.07090
C645        C  0.98803681  0.47261142  0.79628934    -0.02870
C646        C  0.98771457  0.49684893  0.84044686    -0.07320
C647        C  0.96645075  0.53546406  0.84076778     0.06200
C648        C  0.95009256  0.55187326  0.79495885    -0.02350
Br649      Br  0.92220904  0.60520571  0.79171781    -0.02040
H650        H  0.93444179  0.53960232  0.71727221     0.10120
H651        H  0.00072027  0.48415084  0.87548705     0.08130
Br652      Br  0.01326935  0.41829567  0.80003899    -0.02470
C653        C  0.32447237  0.56381981  0.65135259    -0.09110
C654        C  0.34210309  0.60378404  0.65305801     0.07090
C655        C  0.31277981  0.63785049  0.65320200    -0.02930
C656        C  0.26672120  0.63141433  0.65485446    -0.07320
C657        C  0.24921699  0.59133671  0.65606439     0.06200
C658        C  0.27852628  0.55738072  0.65255129    -0.02350
Br659      Br  0.25772303  0.50161059  0.64814244    -0.02040
H660        H  0.34659232  0.53736153  0.65069391     0.10120
H661        H  0.24451957  0.65780432  0.65651402     0.08130
Br662      Br  0.33389516  0.36023266  0.65017110    -0.02470
C663        C  0.31361581  0.38963288  0.94701963    -0.09110
C664        C  0.34151164  0.42416270  0.94490054     0.07090
C665        C  0.32221451  0.46394248  0.94560154    -0.02870
C666        C  0.27585388  0.46838449  0.94803045    -0.07320
C667        C  0.24790474  0.43379988  0.94888585     0.06200
C668        C  0.26728924  0.39405264  0.94848186    -0.02350
Br669      Br  0.23260488  0.34458143  0.94417238    -0.02040
H670        H  0.32795987  0.35896283  0.94596445     0.10120
H671        H  0.26142156  0.49903166  0.94716259     0.08130
Br672      Br  0.35688404  0.51320393  0.93784043    -0.02470
C673        C  0.45392686  0.65222794  0.85261920    -0.09110
C674        C  0.46788086  0.36006142  0.85092504     0.07090
C675        C  0.48692567  0.37560747  0.80576333    -0.02870
C676        C  0.48661214  0.35146429  0.76161126    -0.07320
C677        C  0.46747396  0.64544118  0.76221751     0.06200
C678        C  0.45356287  0.62825911  0.80869951    -0.02350
Br679      Br  0.42903578  0.57380716  0.81272218    -0.02040
H680        H  0.43970240  0.63984415  0.88729264     0.10120
H681        H  0.49759862  0.36478029  0.72595391     0.08130
Br682      Br  0.50785724  0.43120477  0.80063783    -0.02470
C683        C  0.77654974  0.62667224  0.94840284    -0.09110
C684        C  0.74847340  0.59229819  0.94631805     0.07090
C685        C  0.76754060  0.55240360  0.94640890    -0.02870
C686        C  0.81385279  0.54771193  0.94838476    -0.07320
C687        C  0.84198384  0.58214365  0.94932566     0.06200
C688        C  0.82284433  0.62199795  0.94937836    -0.02350
Br689      Br  0.85783005  0.67131410  0.94511478    -0.02040
H690        H  0.76237799  0.65741337  0.94773978     0.10120
H691        H  0.82810789  0.51699679  0.94716629     0.08130
Br692      Br  0.73267392  0.50331453  0.93843316    -0.02470
C693        C  0.76508786  0.45461164  0.65468346    -0.09110
C694        C  0.74693857  0.41487669  0.65739658     0.07090
C695        C  0.77583682  0.38047291  0.65746485    -0.02870
C696        C  0.82197928  0.38637364  0.65806494    -0.07320
C697        C  0.84004085  0.42622383  0.65824430     0.06200
C698        C  0.81116495  0.46049964  0.65484597    -0.02350
Br699      Br  0.83281226  0.51592997  0.64916575    -0.02040
H700        H  0.74330122  0.48130046  0.65393045     0.10120
H701        H  0.84382876  0.35974268  0.65969753     0.08130
Br702      Br  0.75407247  0.65826061  0.65560668    -0.02470
C703        C  0.62379004  0.38690029  0.80940513    -0.09110
C704        C  0.62005641  0.36729484  0.76218890     0.07090
C705        C  0.61294294  0.32452412  0.76026505    -0.02870
C706        C  0.61336750  0.63475931  0.80514043    -0.07320
C707        C  0.62172164  0.65390023  0.85185849     0.06200
C708        C  0.62484497  0.36377962  0.85419432    -0.02350
Br709      Br  0.63572033  0.39181329  0.91706872    -0.02040
H710        H  0.62980768  0.41974961  0.81106903     0.10120
H711        H  0.61142444  0.60150340  0.80302372     0.08130
Br712      Br  0.60956361  0.62928573  0.69664583    -0.02470
C713        C  0.63544901  0.72269860  0.21664924     0.03180
C714        C  0.68131297  0.72354905  0.20681991    -0.12970
C715        C  0.69818089  0.74388562  0.16405923     0.00680
C716        C  0.66856356  0.76382335  0.13112412    -0.11500
C717        C  0.62246897  0.76399039  0.14110987     0.03170
C718        C  0.60592078  0.74316087  0.18406878    -0.10920
H719        H  0.70403134  0.70905820  0.23337597     0.08760
H720        H  0.68172850  0.78050274  0.09872176     0.06290
H721        H  0.57052669  0.74318603  0.19245603     0.06140
C722        C  0.63727072  0.96171629  0.39453297     0.03180
C723        C  0.60740781  0.94055206  0.42609688    -0.12970
C724        C  0.62370104  0.91640819  0.46633128     0.00680
C725        C  0.66982659  0.91328861  0.47421075    -0.11500
C726        C  0.69984843  0.93229262  0.44097286     0.03170
C727        C  0.68331537  0.95719428  0.40178822    -0.10920
H728        H  0.57187353  0.94297991  0.41939920     0.08760
H729        H  0.68259531  0.89467866  0.00511976     0.06290
H730        H  0.70628480  0.97234794  0.37600521     0.06140
C731        C  0.45278108  0.72093928  0.39226039     0.03180
C732        C  0.48271012  0.74122190  0.42439643    -0.12970
C733        C  0.46635792  0.76550309  0.46468402     0.00680
C734        C  0.42018413  0.76945737  0.47228791    -0.11500
C735        C  0.39018703  0.75106008  0.43891153     0.03170
C736        C  0.40672251  0.72631744  0.39949163    -0.10920
H737        H  0.51829456  0.73773835  0.41840563     0.08760
H738        H  0.40740183  0.78799410  0.00335500     0.06290
H739        H  0.38364381  0.71154274  0.37376566     0.06140
C740        C  0.45271283  0.96023373  0.21414631     0.03180
C741        C  0.48221597  0.93896433  0.18210067    -0.12970
C742        C  0.46622563  0.91920896  0.13835920     0.00680
C743        C  0.42054437  0.92117452  0.12701945    -0.11500
C744        C  0.39077075  0.94182739  0.15939770     0.03170
C745        C  0.40720777  0.96163226  0.20256612    -0.10920
H746        H  0.51701641  0.93656954  0.19223640     0.08760
H747        H  0.40763483  0.90485556  0.09437434     0.06290
H748        H  0.38423503  0.97638775  0.22883012     0.06140
In749      In  0.54454803  0.84038537  0.05291448     1.36870
C750        C  0.49629591  0.78934860  0.49733476     0.77630
O751        O  0.55476483  0.88209518  0.48533523    -0.60810
O752        O  0.60617157  0.87659604  0.03990652    -0.51730
C753        C  0.49568398  0.89306990  0.10700370     0.70300
O754        O  0.48348723  0.87857389  0.06501348    -0.46580
C755        C  0.59291367  0.78883051  0.10860718     0.75000
O756        O  0.48373695  0.80325284  0.03969044    -0.58440
O757        O  0.60548623  0.80256020  0.06619339    -0.48530
O758        O  0.53516399  0.79959360  0.48434129    -0.54870
C759        C  0.59372810  0.89168705  0.49825828     0.85180
O760        O  0.53406904  0.88187124  0.12067949    -0.56770
O761        O  0.55416017  0.79979216  0.12167366    -0.60060
C762        C  0.95144530  0.79260529  0.21149183     0.03180
C763        C  0.90539487  0.78793777  0.20456898    -0.12970
C764        C  0.88871061  0.76465521  0.16427240     0.00680
C765        C  0.91856039  0.74485351  0.13136401    -0.11500
C766        C  0.96475892  0.74820998  0.13853593     0.03170
C767        C  0.98122364  0.77225884  0.17869988    -0.10920
H768        H  0.88236096  0.80264183  0.23081618     0.08760
H769        H  0.90566325  0.72615961  0.10070925     0.06290
H770        H  0.01681473  0.77556298  0.18401902     0.06140
C771        C  0.95248919  0.88740725  0.38941853     0.03180
C772        C  0.98258518  0.90775695  0.42126330    -0.12970
C773        C  0.96682161  0.92842831  0.46485530     0.00680
C774        C  0.92097119  0.92806162  0.47631032    -0.11500
C775        C  0.89069509  0.90928652  0.44344287     0.03170
C776        C  0.90689077  0.88777020  0.40120945    -0.10920
H777        H  0.01760180  0.90871815  0.41115324     0.08760
H778        H  0.90834787  0.94461296  0.00913255     0.06290
H779        H  0.88360457  0.87336818  0.37539260     0.06140
C780        C  0.13841930  0.88995998  0.21077796     0.03180
C781        C  0.10829495  0.90982266  0.17820218    -0.12970
C782        C  0.12438731  0.93416731  0.13787526     0.00680
C783        C  0.17050477  0.93823968  0.13024949    -0.11500
C784        C  0.20066431  0.91898761  0.16291652     0.03170
C785        C  0.18438168  0.89549865  0.20347485    -0.10920
H786        H  0.07276536  0.90590462  0.18377355     0.08760
H787        H  0.18310133  0.95708125  0.09939200     0.06290
H788        H  0.20767594  0.88121396  0.22954883     0.06140
C789        C  0.13780206  0.79459182  0.38883730     0.03180
C790        C  0.10749339  0.77415745  0.42073017    -0.12970
C791        C  0.12292107  0.75358566  0.46442071     0.00680
C792        C  0.16869016  0.75409097  0.47587818    -0.11500
C793        C  0.19918471  0.77308546  0.44306245     0.03170
C794        C  0.18326608  0.79454787  0.40079946    -0.10920
H795        H  0.07257652  0.77305323  0.41057891     0.08760
H796        H  0.18109553  0.73754469  0.00870954     0.06290
H797        H  0.20672100  0.80912494  0.37505487     0.06140
In798      In  0.04452346  0.67436820  0.04907567     1.36870
C799        C  0.09404670  0.95754572  0.10493112     0.77630
O800        O  0.03377714  0.71422064  0.11807323    -0.60810
O801        O  0.98277631  0.71109082  0.06274635    -0.51730
C802        C  0.09306757  0.72757985  0.49538029     0.70300
O803        O  0.10512753  0.71264849  0.03724840    -0.46580
C804        C  0.99641496  0.95446433  0.49566157     0.75000
O805        O  0.10610683  0.97091992  0.06213230    -0.58440
O806        O  0.98408706  0.96932451  0.03758028    -0.48530
O807        O  0.05514735  0.96779439  0.11809310    -0.54870
C808        C  0.99488771  0.72451739  0.10534881     0.85180
O809        O  0.05475464  0.71662413  0.48144326    -0.56770
O810        O  0.03473710  0.96555543  0.48149993    -0.60060
C811        C  0.10170242  0.85110781  0.33961908    -0.09110
C812        C  0.12422339  0.81309820  0.34007091     0.07090
C813        C  0.14182378  0.79728935  0.29436214    -0.02870
C814        C  0.14136901  0.82143400  0.25063512    -0.07320
C815        C  0.12388293  0.86157282  0.25155042     0.06200
C816        C  0.10125748  0.87545378  0.29549709    -0.02350
Br817      Br  0.07421174  0.92903359  0.29916400    -0.02040
H818        H  0.08772526  0.86333055  0.37454977     0.10120
H819        H  0.15814926  0.81015959  0.21681507     0.08130
Br820      Br  0.17141949  0.74472214  0.29115004    -0.02470
C821        C  0.95039628  0.86115717  0.25119151    -0.09110
C822        C  0.96651785  0.82054940  0.25220776     0.07090
C823        C  0.98803686  0.80594498  0.29628910    -0.02870
C824        C  0.98771462  0.83018249  0.34044663    -0.07320
C825        C  0.96645065  0.86879755  0.34076762     0.06200
C826        C  0.95009231  0.88520670  0.29495873    -0.02350
Br827      Br  0.92220860  0.93853907  0.29171777    -0.02040
H828        H  0.93444143  0.87293573  0.21727214     0.10120
H829        H  0.00072044  0.81748443  0.37548677     0.08130
Br830      Br  0.01326960  0.75162930  0.30003868    -0.02470
C831        C  0.32447234  0.89715318  0.15135281    -0.09110
C832        C  0.34210307  0.93711741  0.15305813     0.07090
C833        C  0.31277981  0.97118387  0.15320208    -0.02930
C834        C  0.26672119  0.96474773  0.15485457    -0.07320
C835        C  0.24921696  0.92467010  0.15606458     0.06200
C836        C  0.27852624  0.89071410  0.15255154    -0.02350
Br837      Br  0.25772298  0.83494397  0.14814282    -0.02040
H838        H  0.34659228  0.87069489  0.15069417     0.10120
H839        H  0.24451957  0.99113772  0.15651409     0.08130
Br840      Br  0.33389518  0.69356602  0.15017109    -0.02470
C841        C  0.31361587  0.72296612  0.44701959    -0.09110
C842        C  0.34151168  0.75749596  0.44490047     0.07090
C843        C  0.32221453  0.79727573  0.44560139    -0.02870
C844        C  0.27585389  0.80171772  0.44803026    -0.07320
C845        C  0.24790477  0.76713310  0.44888570     0.06200
C846        C  0.26728929  0.72738586  0.44848178    -0.02350
Br847      Br  0.23260496  0.67791464  0.44417235    -0.02040
H848        H  0.32795995  0.69229609  0.44596446     0.10120
H849        H  0.26142156  0.83236489  0.44716236     0.08130
Br850      Br  0.35688404  0.84653719  0.43784024    -0.02470
C851        C  0.45392702  0.98556126  0.35261919    -0.09110
C852        C  0.46788096  0.69339474  0.35092504     0.07090
C853        C  0.48692573  0.70894082  0.30576332    -0.02870
C854        C  0.48661217  0.68479765  0.26161123    -0.07320
C855        C  0.46747403  0.97877455  0.26221748     0.06200
C856        C  0.45356301  0.96159245  0.30869948    -0.02350
Br857      Br  0.42903597  0.90714048  0.31272215    -0.02040
H858        H  0.43970260  0.97317745  0.38729264     0.10120
H859        H  0.49759862  0.69811367  0.22595388     0.08130
Br860      Br  0.50785726  0.76453814  0.30063783    -0.02470
C861        C  0.77654973  0.96000559  0.44840286    -0.09110
C862        C  0.74847340  0.92563155  0.44631808     0.07090
C863        C  0.76754060  0.88573695  0.44640895    -0.02870
C864        C  0.81385278  0.88104528  0.44838481    -0.07320
C865        C  0.84198383  0.91547701  0.44932569     0.06200
C866        C  0.82284433  0.95533131  0.44937837    -0.02350
Br867      Br  0.85783004  0.00464745  0.44511477    -0.02040
H868        H  0.76237798  0.99074672  0.44773978     0.10120
H869        H  0.82810789  0.85033014  0.44716635     0.08130
Br870      Br  0.73267391  0.83664789  0.43843325    -0.02470
C871        C  0.76508778  0.78794496  0.15468330    -0.09110
C872        C  0.74693851  0.74820999  0.15739648     0.07090
C873        C  0.77583679  0.71380622  0.15746479    -0.02870
C874        C  0.82197924  0.71970698  0.15806487    -0.07320
C875        C  0.84004078  0.75955718  0.15824418     0.06200
C876        C  0.81116487  0.79383298  0.15484580    -0.02350
Br877      Br  0.83281215  0.84926330  0.14916548    -0.02040
H878        H  0.74330113  0.81463376  0.15393025     0.10120
H879        H  0.84382874  0.69307603  0.15969749     0.08130
Br880      Br  0.75407247  0.99159393  0.15560668    -0.02470
C881        C  0.62379000  0.72023360  0.30940507    -0.09110
C882        C  0.62005639  0.70062814  0.26218885     0.07090
C883        C  0.61294295  0.65785741  0.26026501    -0.02870
C884        C  0.61336753  0.96809261  0.30514040    -0.07320
C885        C  0.62172165  0.98723354  0.35185846     0.06200
C886        C  0.62484494  0.69711293  0.35419427    -0.02350
Br887      Br  0.63572028  0.72514662  0.41706866    -0.02040
H888        H  0.62980762  0.75308292  0.31106897     0.10120
H889        H  0.61142449  0.93483670  0.30302370     0.08130
Br890      Br  0.60956366  0.96261901  0.19664580    -0.02470
C891        C  0.63544905  0.72269862  0.71664929     0.03180
C892        C  0.68131300  0.72354907  0.70681999    -0.12970
C893        C  0.69818095  0.74388565  0.66405933     0.00680
C894        C  0.66856363  0.76382338  0.63112420    -0.11500
C895        C  0.62246903  0.76399041  0.64110992     0.03170
C896        C  0.60592083  0.74316088  0.68406881    -0.10920
H897        H  0.70403137  0.70905821  0.73337605     0.08760
H898        H  0.68172858  0.78050278  0.59872185     0.06290
H899        H  0.57052673  0.74318603  0.69245605     0.06140
C900        C  0.63727072  0.96171629  0.89453297     0.03180
C901        C  0.60740781  0.94055207  0.92609688    -0.12970
C902        C  0.62370104  0.91640817  0.96633126     0.00680
C903        C  0.66982660  0.91328857  0.97421071    -0.11500
C904        C  0.69984843  0.93229259  0.94097282     0.03170
C905        C  0.68331537  0.95719427  0.90178820    -0.10920
H906        H  0.57187353  0.94297993  0.91939922     0.08760
H907        H  0.68259530  0.89467872  0.50511982     0.06290
H908        H  0.70628480  0.97234793  0.87600520     0.06140
C909        C  0.45278098  0.72093933  0.89226037     0.03180
C910        C  0.48271004  0.74122194  0.92439640    -0.12970
C911        C  0.46635786  0.76550313  0.96468400     0.00680
C912        C  0.42018408  0.76945742  0.97228792    -0.11500
C913        C  0.39018697  0.75106015  0.93891154     0.03170
C914        C  0.40672242  0.72631751  0.89949162    -0.10920
H915        H  0.51829448  0.73773837  0.91840559     0.08760
H916        H  0.40740186  0.78799406  0.50335498     0.06290
H917        H  0.38364370  0.71154282  0.87376567     0.06140
C918        C  0.45271280  0.96023366  0.71414633     0.03180
C919        C  0.48221596  0.93896428  0.68210071    -0.12970
C920        C  0.46622565  0.91920893  0.63835921     0.00680
C921        C  0.42054441  0.92117450  0.62701941    -0.11500
C922        C  0.39077076  0.94182735  0.65939764     0.03170
C923        C  0.40720774  0.96163220  0.70256610    -0.10920
H924        H  0.51701639  0.93656949  0.69223648     0.08760
H925        H  0.40763490  0.90485557  0.59437427     0.06290
H926        H  0.38423497  0.97638768  0.72883009     0.06140
In927      In  0.54454807  0.84038536  0.55291450     1.36870
C928        C  0.49629586  0.78934863  0.99733473     0.77630
O929        O  0.55476480  0.88209522  0.98533524    -0.60810
O930        O  0.60617157  0.87659608  0.53990655    -0.51730
C931        C  0.49568402  0.89306988  0.60700373     0.70300
O932        O  0.48348729  0.87857391  0.56501347    -0.46580
C933        C  0.59291373  0.78883052  0.60860721     0.75000
O934        O  0.48373697  0.80325285  0.53969044    -0.58440
O935        O  0.60548631  0.80256024  0.56619344    -0.48530
O936        O  0.53516392  0.79959366  0.98434123    -0.54870
C937        C  0.59372809  0.89168705  0.99825827     0.85180
O938        O  0.53406905  0.88187119  0.62067955    -0.56770
O939        O  0.55416020  0.79979212  0.62167366    -0.60060
C940        C  0.95144540  0.79260511  0.71149202     0.03180
C941        C  0.90539497  0.78793765  0.70456917    -0.12970
C942        C  0.88871068  0.76465514  0.66427256     0.00680
C943        C  0.91856044  0.74485344  0.63136413    -0.11500
C944        C  0.96475898  0.74820988  0.63853605     0.03170
C945        C  0.98122372  0.77225868  0.67870005    -0.10920
H946        H  0.88236108  0.80264170  0.73081639     0.08760
H947        H  0.90566329  0.72615959  0.60070934     0.06290
H948        H  0.01681482  0.77556278  0.68401920     0.06140
C949        C  0.95248926  0.88740714  0.88941865     0.03180
C950        C  0.98258522  0.90775685  0.92126343    -0.12970
C951        C  0.96682162  0.92842828  0.96485537     0.00680
C952        C  0.92097119  0.92806162  0.97631032    -0.11500
C953        C  0.89069511  0.90928650  0.94344285     0.03170
C954        C  0.90689083  0.88777014  0.90120949    -0.10920
H955        H  0.01760186  0.90871802  0.91115342     0.08760
H956        H  0.90834790  0.94461293  0.50913259     0.06290
H957        H  0.88360465  0.87336811  0.87539262     0.06140
C958        C  0.13841936  0.88995982  0.71077777     0.03180
C959        C  0.10829499  0.90982251  0.67820201    -0.12970
C960        C  0.12438734  0.93416719  0.63787510     0.00680
C961        C  0.17050479  0.93823958  0.63024931    -0.11500
C962        C  0.20066435  0.91898749  0.66291631     0.03170
C963        C  0.18438174  0.89549851  0.70347463    -0.10920
H964        H  0.07276541  0.90590445  0.68377338     0.08760
H965        H  0.18310134  0.95708118  0.59939184     0.06290
H966        H  0.20767602  0.88121382  0.72954859     0.06140
C967        C  0.13780206  0.79459184  0.88883728     0.03180
C968        C  0.10749338  0.77415745  0.92073012    -0.12970
C969        C  0.12292103  0.75358571  0.96442072     0.00680
C970        C  0.16869010  0.75409108  0.97587826    -0.11500
C971        C  0.19918467  0.77308559  0.94306256     0.03170
C972        C  0.18326606  0.79454797  0.90079953    -0.10920
H973        H  0.07257652  0.77305317  0.91057880     0.08760
H974        H  0.18109560  0.73754455  0.50870944     0.06290
H975        H  0.20672100  0.80912505  0.87505497     0.06140
In976      In  0.04452348  0.67436817  0.54907566     1.36870
C977        C  0.09404671  0.95754564  0.60493101     0.77630
O978        O  0.03377720  0.71422056  0.61807327    -0.60810
O979        O  0.98277633  0.71109077  0.56274642    -0.51730
C980        C  0.09306753  0.72757989  0.99538028     0.70300
O981        O  0.10512759  0.71264841  0.53724839    -0.46580
C982        C  0.99641496  0.95446431  0.99566163     0.75000
O983        O  0.10610683  0.97091986  0.56213220    -0.58440
O984        O  0.98408708  0.96932448  0.53758026    -0.48530
O985        O  0.05514738  0.96779431  0.61809303    -0.54870
C986        C  0.99488776  0.72451731  0.60534888     0.85180
O987        O  0.05475464  0.71662412  0.98144322    -0.56770
O988        O  0.03473712  0.96555539  0.98150001    -0.60060
C989        C  0.10170233  0.85110767  0.83961886    -0.09110
C990        C  0.12422344  0.81309813  0.84007082     0.07090
C991        C  0.14182401  0.79728930  0.79436213    -0.02870
C992        C  0.14136924  0.82143390  0.75063507    -0.07320
C993        C  0.12388302  0.86157266  0.75155025     0.06200
C994        C  0.10125741  0.87545360  0.79549683    -0.02350
Br995      Br  0.07421148  0.92903333  0.79916360    -0.02040
H996        H  0.08772505  0.86333040  0.87454949     0.10120
H997        H  0.15814961  0.81015950  0.71681508     0.08130
Br998      Br  0.17141996  0.74472219  0.79115019    -0.02470
C999        C  0.95039660  0.86115702  0.75119164    -0.09110
C1000       C  0.96651798  0.82054918  0.75220798     0.07090
C1001       C  0.98803679  0.80594470  0.79628939    -0.02870
C1002       C  0.98771455  0.83018221  0.84044691    -0.07320
C1003       C  0.96645077  0.86879736  0.84076780     0.06200
C1004       C  0.95009263  0.88520657  0.79495885    -0.02350
Br1005     Br  0.92220918  0.93853905  0.79171778    -0.02040
H1006       H  0.93444188  0.87293563  0.71727221     0.10120
H1007       H  0.00072021  0.81748411  0.87548711     0.08130
Br1008     Br  0.01326926  0.75162891  0.80003907    -0.02470
C1009       C  0.32447237  0.89715313  0.65135257    -0.09110
C1010       C  0.34210309  0.93711736  0.65305801     0.07090
C1011       C  0.31277981  0.97118381  0.65320201    -0.02930
C1012       C  0.26672120  0.96474765  0.65485446    -0.07320
C1013       C  0.24921699  0.92467002  0.65606437     0.06200
C1014       C  0.27852628  0.89071403  0.65255126    -0.02350
Br1015     Br  0.25772304  0.83494391  0.64814239    -0.02040
H1016       H  0.34659232  0.87069485  0.65069389     0.10120
H1017       H  0.24451956  0.99113763  0.65651402     0.08130
Br1018     Br  0.33389515  0.69356599  0.65017109    -0.02470
C1019       C  0.31361580  0.72296622  0.94701962    -0.09110
C1020       C  0.34151162  0.75749605  0.94490052     0.07090
C1021       C  0.32221448  0.79727582  0.94560151    -0.02870
C1022       C  0.27585385  0.80171782  0.94803041    -0.07320
C1023       C  0.24790472  0.76713321  0.94888583     0.06200
C1024       C  0.26728922  0.72738597  0.94848184    -0.02350
Br1025     Br  0.23260487  0.67791476  0.94417237    -0.02040
H1026       H  0.32795986  0.69229618  0.94596445     0.10120
H1027       H  0.26142153  0.83236500  0.94716255     0.08130
Br1028     Br  0.35688401  0.84653728  0.93784040    -0.02470
C1029       C  0.45392687  0.98556126  0.85261921    -0.09110
C1030       C  0.46788084  0.69339476  0.85092503     0.07090
C1031       C  0.48692566  0.70894081  0.80576332    -0.02870
C1032       C  0.48661213  0.68479763  0.76161125    -0.07320
C1033       C  0.46747396  0.97877451  0.76221751     0.06200
C1034       C  0.45356287  0.96159244  0.80869951    -0.02350
Br1035     Br  0.42903579  0.90714048  0.81272218    -0.02040
H1036       H  0.43970241  0.97317747  0.88729265     0.10120
H1037       H  0.49759862  0.69811363  0.72595390     0.08130
Br1038     Br  0.50785724  0.76453812  0.80063782    -0.02470
C1039       C  0.77654973  0.96000557  0.94840282    -0.09110
C1040       C  0.74847340  0.92563152  0.94631802     0.07090
C1041       C  0.76754061  0.88573693  0.94640887    -0.02870
C1042       C  0.81385280  0.88104526  0.94838473    -0.07320
C1043       C  0.84198384  0.91547699  0.94932563     0.06200
C1044       C  0.82284433  0.95533129  0.94937833    -0.02350
Br1045     Br  0.85783004  0.00464744  0.94511475    -0.02040
H1046       H  0.76237798  0.99074670  0.94773975     0.10120
H1047       H  0.82810790  0.85033013  0.94716625     0.08130
Br1048     Br  0.73267393  0.83664786  0.93843313    -0.02470
C1049       C  0.76508786  0.78794497  0.65468350    -0.09110
C1050       C  0.74693857  0.74821001  0.65739659     0.07090
C1051       C  0.77583682  0.71380623  0.65746486    -0.02870
C1052       C  0.82197928  0.71970696  0.65806495    -0.07320
C1053       C  0.84004085  0.75955715  0.65824433     0.06200
C1054       C  0.81116495  0.79383296  0.65484602    -0.02350
Br1055     Br  0.83281227  0.84926328  0.64916583    -0.02040
H1056       H  0.74330122  0.81463378  0.65393049     0.10120
H1057       H  0.84382876  0.69307599  0.65969753     0.08130
Br1058     Br  0.75407247  0.99159394  0.65560669    -0.02470
C1059       C  0.62379002  0.72023361  0.80940512    -0.09110
C1060       C  0.62005641  0.70062816  0.76218889     0.07090
C1061       C  0.61294294  0.65785744  0.76026504    -0.02870
C1062       C  0.61336750  0.96809265  0.80514041    -0.07320
C1063       C  0.62172164  0.98723356  0.85185848     0.06200
C1064       C  0.62484495  0.69711294  0.85419431    -0.02350
Br1065     Br  0.63572030  0.72514661  0.91706872    -0.02040
H1066       H  0.62980766  0.75308293  0.81106903     0.10120
H1067       H  0.61142443  0.93483674  0.80302371     0.08130
Br1068     Br  0.60956360  0.96261907  0.69664581    -0.02470
loop_ 
_geom_bond_atom_site_label_1 
_geom_bond_atom_site_label_2 
_geom_bond_distance 
_geom_bond_site_symmetry_2 
_ccdc_geom_bond_type 
C1            C2   1.400       .  A
C1            C6   1.401       .  A
C1          C170   1.470       .  S
C2            C3   1.398       .  A
C2            H7   1.084       .  S
C3            C4   1.401       .  A
C3          C160   1.481       .  S
C4            C5   1.407       .  A
C4            H8   1.084       .  S
C5            C6   1.407       .  A
C5           C43   1.473       .  S
C6            H9   1.084       .  S
C10          C11   1.401       .  A
C10          C15   1.403       .  A
C10         C173   1.472       .  S
C11          C12   1.405       .  A
C11          H16   1.085       .  S
C12          C13   1.404       .  A
C12          C47   1.469       .  S
C13          C14   1.398       .  A
C13         H195   1.083       .  S
C14          C15   1.401       .  A
C14         C150   1.482       .  S
C15          H18   1.084       .  S
H17         C191   1.083   1_554  S
C19          C20   1.403       .  A
C19          C24   1.405       .  A
C19         C140   1.477       .  S
C20          C21   1.407       .  A
C20          H25   1.084       .  S
C21          C22   1.405       .  A
C21          C38   1.470       .  S
C22          C23   1.397       .  A
C22         H204   1.083       .  S
C23          C24   1.400       .  A
C23         C130   1.483       .  S
C24          H27   1.085       .  S
H26         C200   1.083   1_554  S
C28          C29   1.400       .  A
C28          C33   1.402       .  A
C28         C143   1.473       .  S
C29          C30   1.406       .  A
C29          H34   1.082       .  S
C30          C31   1.406       .  A
C30          C41   1.473       .  S
C31          C32   1.401       .  A
C31          H35   1.084       .  S
C32          C33   1.399       .  A
C32         C120   1.480       .  S
C33          H36   1.084       .  S
In37         O40   2.221       .  S
In37         O48   2.255       .  S
In37         O42   2.229       .  S
In37         O44   2.221       .  S
In37         O45   2.227       .  S
In37         O49   2.257       .  S
In37        O217   2.255   1_554  S
In37        O224   2.259   1_554  S
C38          O46   1.260       .  A
C38         O222   1.258       .  A
O39        In215   2.255       .  S
O39          C47   1.260       .  A
O40         C225   1.258   1_554  A
C41          O48   1.261       .  A
C41          O42   1.258       .  A
C43          O45   1.259       .  A
C43          O49   1.261       .  A
O44         C216   1.258   1_554  A
O46        In215   2.259       .  S
C47         O218   1.258       .  A
C50          C51   1.404       .  A
C50          C55   1.403       .  A
C50         C110   1.478       .  S
C51          C52   1.399       .  A
C51          H56   1.084       .  S
C52          C53   1.398       .  A
C52         C163   1.480       .  S
C53          C54   1.405       .  A
C53          H57   1.084       .  S
C54          C55   1.407       .  A
C54          C96   1.469       .  S
C55          H58   1.084   1_655  S
C59          C60   1.403       .  A
C59          C64   1.402       .  A
C59         C113   1.474       .  S
C60          C61   1.408       .  A
C60          H65   1.084   1_655  S
C61          C62   1.408       .  A
C61          C92   1.475       .  S
C62          C63   1.400       .  A
C62         H244   1.083       .  S
C63          C64   1.397       .  A
C63         C153   1.482       .  S
C64          H67   1.085       .  S
H66         C240   1.083   1_554  S
C68          C69   1.404       .  A
C68          C73   1.404       .  A
C68         C103   1.479       .  S
C69          C70   1.408       .  A
C69          H74   1.084       .  S
C70          C71   1.405       .  A
C70          C87   1.469       .  S
C71          C72   1.397       .  A
C71          H75   1.084       .  S
C72          C73   1.399       .  A
C72         C123   1.480       .  S
C73          H76   1.084       .  S
C77          C78   1.403       .  A
C77          C82   1.402       .  A
C77         C100   1.475       .  S
C78          C79   1.408       .  A
C78          H83   1.084       .  S
C79          C80   1.408       .  A
C79          C90   1.476       .  S
C80          C81   1.400       .  A
C80         H262   1.084       .  S
C81          C82   1.397       .  A
C81         C133   1.483       .  S
C82          H85   1.085       .  S
H84         C258   1.084   1_554  S
In86         O88   2.251       .  S
In86         O89   2.227   1_455  S
In86         O91   2.228       .  S
In86        O275   2.267   1_554  S
In86        O805   2.224   1_545  S
In86        O806   2.227   1_445  S
In86        O807   2.253   1_545  S
In86        O988   2.266   1_544  S
C87          O93   1.259       .  A
C87          O95   1.260       .  A
O88          C96   1.260   1_455  A
O89          C96   1.259       .  A
C90          O97   1.262       .  A
C90         O269   1.258       .  A
O91         C268   1.258   1_554  A
C92          O98   1.261   1_655  A
C92         O272   1.258       .  A
O93        In442   2.224       .  S
O94        In442   2.227   1_655  S
O94         C270   1.258   1_554  A
O95        In442   2.253       .  S
O97        In264   2.267       .  S
O98        In620   2.266       .  S
C99         C100   1.404       .  A
C99         C104   1.404       .  A
C99         H106   1.083       .  S
C100        C101   1.408       .  A
C101        C102   1.392       .  A
C101       Br108   1.921       .  S
C102        C103   1.402       .  A
C102        H107   1.084       .  S
C103        C104   1.411       .  A
C104       Br105   1.918       .  S
C109        C110   1.402       .  A
C109        C114   1.392       .  A
C109        H116   1.084       .  S
C110        C111   1.411       .  A
C111        C112   1.404       .  A
C111       Br118   1.918   1_655  S
C112        C113   1.404       .  A
C112        H117   1.084   1_655  S
C113        C114   1.407       .  A
C114       Br115   1.921       .  S
C119        C120   1.404       .  A
C119        C124   1.396       .  A
C119        H126   1.083       .  S
C120        C121   1.410       .  A
C121        C122   1.400       .  A
C121       Br484   1.920       .  S
C122        C123   1.405       .  A
C122        H127   1.083       .  S
C123        C124   1.410       .  A
C124       Br125   1.921       .  S
Br128       C833   1.920   1_545  S
C129        C130   1.403       .  A
C129        C134   1.398       .  A
C129        H136   1.083       .  S
C130        C131   1.413       .  A
C131        C132   1.400       .  A
C131       Br138   1.922       .  S
C132        C133   1.404       .  A
C132        H137   1.083       .  S
C133        C134   1.413       .  A
C134       Br135   1.921       .  S
C139        C144   1.394       .  A
C139        C496   1.402       .  A
C139        H146   1.083       .  S
C140        C141   1.410       .  A
C140        C851   1.402   1_545  A
C141        C142   1.402       .  A
C141       Br148   1.918       .  S
C142        C855   1.403   1_545  A
C142        H147   1.084       .  S
C143        C144   1.406       .  A
C143        C498   1.403       .  A
C144       Br145   1.920       .  S
C149        C150   1.402       .  A
C149        C154   1.398       .  A
C149        H156   1.083       .  S
C150        C151   1.413       .  A
C151        C152   1.399       .  A
C151       Br158   1.922       .  S
C152        C153   1.404       .  A
C152        H157   1.083       .  S
C153        C154   1.413       .  A
C154       Br155   1.921       .  S
C159        C160   1.404       .  A
C159        C164   1.397       .  A
C159        H166   1.083       .  S
C160        C161   1.411       .  A
C161        C162   1.399       .  A
C161       Br880   1.921   1_545  S
C162        C163   1.405       .  A
C162        H167   1.083       .  S
C163        C164   1.410       .  A
C164       Br165   1.921       .  S
Br168       C517   1.921       .  S
C169        C170   1.402       .  A
C169        C174   1.397       .  A
C169        H176   1.083       .  S
C170        C171   1.406   1_545  A
C171        C884   1.399       .  A
C171       Br890   1.918       .  S
C172        C173   1.402       .  A
C172        C527   1.399       .  A
C172        H177   1.083       .  S
C173        C530   1.407       .  A
C174        C885   1.407   1_545  A
C174       Br175   1.919       .  S
Br178       C527   1.918       .  S
C179        C180   1.400       .  A
C179        C184   1.401       .  A
C179        C348   1.470       .  S
C180        C181   1.398       .  A
C180        H185   1.084       .  S
C181        C182   1.401       .  A
C181        C338   1.481       .  S
C182        C183   1.407       .  A
C182        H186   1.084       .  S
C183        C184   1.407       .  A
C183        C221   1.473       .  S
C184        H187   1.084       .  S
C188        C189   1.401       .  A
C188        C193   1.403       .  A
C188        C351   1.472       .  S
C189        C190   1.405       .  A
C189        H194   1.085       .  S
C190        C191   1.404       .  A
C190        C225   1.469       .  S
C191        C192   1.398       .  A
C192        C193   1.401       .  A
C192        C328   1.482       .  S
C193        H196   1.084       .  S
C197        C198   1.403       .  A
C197        C202   1.405       .  A
C197        C318   1.477       .  S
C198        C199   1.407       .  A
C198        H203   1.084       .  S
C199        C200   1.405       .  A
C199        C216   1.470       .  S
C200        C201   1.397       .  A
C201        C202   1.400       .  A
C201        C308   1.483       .  S
C202        H205   1.085       .  S
C206        C207   1.400       .  A
C206        C211   1.402       .  A
C206        C321   1.473       .  S
C207        C208   1.406       .  A
C207        H212   1.082       .  S
C208        C209   1.406       .  A
C208        C219   1.473       .  S
C209        C210   1.401       .  A
C209        H213   1.084       .  S
C210        C211   1.399       .  A
C210        C298   1.480       .  S
C211        H214   1.084       .  S
In215       O218   2.221       .  S
In215       O226   2.255       .  S
In215       O220   2.229       .  S
In215       O222   2.221       .  S
In215       O223   2.227       .  S
In215       O227   2.257       .  S
C216        O224   1.260       .  A
O217        C225   1.260       .  A
C219        O226   1.261       .  A
C219        O220   1.258       .  A
C221        O223   1.259       .  A
C221        O227   1.261       .  A
C228        C229   1.404       .  A
C228        C233   1.403       .  A
C228        C288   1.478       .  S
C229        C230   1.399       .  A
C229        H234   1.084       .  S
C230        C231   1.398       .  A
C230        C341   1.480       .  S
C231        C232   1.405       .  A
C231        H235   1.084       .  S
C232        C233   1.407       .  A
C232        C274   1.469       .  S
C233        H236   1.084   1_655  S
C237        C238   1.403       .  A
C237        C242   1.402       .  A
C237        C291   1.474       .  S
C238        C239   1.408       .  A
C238        H243   1.084   1_655  S
C239        C240   1.408       .  A
C239        C270   1.475       .  S
C240        C241   1.400       .  A
C241        C242   1.397       .  A
C241        C331   1.482       .  S
C242        H245   1.085       .  S
C246        C247   1.404       .  A
C246        C251   1.404       .  A
C246        C281   1.479       .  S
C247        C248   1.408       .  A
C247        H252   1.084       .  S
C248        C249   1.405       .  A
C248        C265   1.469       .  S
C249        C250   1.397       .  A
C249        H253   1.084       .  S
C250        C251   1.399       .  A
C250        C301   1.480       .  S
C251        H254   1.084       .  S
C255        C256   1.403       .  A
C255        C260   1.402       .  A
C255        C278   1.475       .  S
C256        C257   1.408       .  A
C256        H261   1.084       .  S
C257        C258   1.408       .  A
C257        C268   1.476       .  S
C258        C259   1.400       .  A
C259        C260   1.397       .  A
C259        C311   1.483       .  S
C260        H263   1.085       .  S
In264       O266   2.251       .  S
In264       O267   2.227   1_455  S
In264       O269   2.228       .  S
In264       O983   2.224   1_545  S
In264       O984   2.227   1_445  S
In264       O985   2.253   1_545  S
In264       O810   2.266   1_545  S
C265        O271   1.259       .  A
C265        O273   1.260       .  A
O266        C274   1.260   1_455  A
O267        C274   1.259       .  A
C268        O275   1.262       .  A
C270        O276   1.261   1_655  A
O271       In620   2.224       .  S
O272       In620   2.227   1_655  S
O273       In620   2.253       .  S
O276       In442   2.266   1_556  S
C277        C278   1.404       .  A
C277        C282   1.404       .  A
C277        H284   1.083       .  S
C278        C279   1.408       .  A
C279        C280   1.392       .  A
C279       Br286   1.921       .  S
C280        C281   1.402       .  A
C280        H285   1.084       .  S
C281        C282   1.411       .  A
C282       Br283   1.918       .  S
C287        C288   1.402       .  A
C287        C292   1.392       .  A
C287        H294   1.084       .  S
C288        C289   1.411       .  A
C289        C290   1.404       .  A
C289       Br296   1.918   1_655  S
C290        C291   1.404       .  A
C290        H295   1.084   1_655  S
C291        C292   1.407       .  A
C292       Br293   1.921       .  S
C297        C298   1.404       .  A
C297        C302   1.396       .  A
C297        H304   1.083       .  S
C298        C299   1.410       .  A
C299        C300   1.400       .  A
C299       Br662   1.920       .  S
C300        C301   1.405       .  A
C300        H305   1.083       .  S
C301        C302   1.410       .  A
C302       Br303   1.921       .  S
Br306      C1011   1.920   1_545  S
C307        C308   1.403       .  A
C307        C312   1.398       .  A
C307        H314   1.083       .  S
C308        C309   1.413       .  A
C309        C310   1.400       .  A
C309       Br316   1.922       .  S
C310        C311   1.404       .  A
C310        H315   1.083       .  S
C311        C312   1.413       .  A
C312       Br313   1.921       .  S
C317        C674   1.402       .  A
C317        C322   1.394       .  A
C317        H324   1.083       .  S
C318       C1029   1.402   1_545  A
C318        C319   1.410       .  A
C319        C320   1.402       .  A
C319       Br326   1.918       .  S
C320       C1033   1.403   1_545  A
C320        H325   1.084       .  S
C321        C676   1.403       .  A
C321        C322   1.406       .  A
C322       Br323   1.920       .  S
C327        C328   1.402       .  A
C327        C332   1.398       .  A
C327        H334   1.083       .  S
C328        C329   1.413       .  A
C329        C330   1.399       .  A
C329       Br336   1.922       .  S
C330        C331   1.404       .  A
C330        H335   1.083       .  S
C331        C332   1.413       .  A
C332       Br333   1.921       .  S
C337        C338   1.404       .  A
C337        C342   1.397       .  A
C337        H344   1.083       .  S
C338        C339   1.411       .  A
C339        C340   1.399       .  A
C339      Br1058   1.921   1_545  S
C340        C341   1.405       .  A
C340        H345   1.083       .  S
C341        C342   1.410       .  A
C342       Br343   1.921       .  S
Br346       C695   1.921       .  S
C347        C348   1.402       .  A
C347        C352   1.397       .  A
C347        H354   1.083       .  S
C348        C349   1.406   1_545  A
C349       C1062   1.399       .  A
C349      Br1068   1.918       .  S
C350        C705   1.399       .  A
C350        C351   1.402       .  A
C350        H355   1.083       .  S
C351        C708   1.407       .  A
C352       C1063   1.407   1_545  A
C352       Br353   1.919       .  S
Br356       C705   1.918       .  S
C357        C358   1.400       .  A
C357        C362   1.401       .  A
C357        C526   1.470       .  S
C358        C359   1.398       .  A
C358        H363   1.084       .  S
C359        C360   1.401       .  A
C359        C516   1.481       .  S
C360        C361   1.407       .  A
C360        H364   1.084       .  S
C361        C362   1.407       .  A
C361        C399   1.473       .  S
C362        H365   1.084       .  S
C366        C367   1.401       .  A
C366        C371   1.403       .  A
C366        C529   1.472       .  S
C367        C368   1.405       .  A
C367        H372   1.085       .  S
C368        C369   1.404       .  A
C368        C403   1.469       .  S
C369        C370   1.398       .  A
C369        H551   1.083       .  S
C370        C371   1.401       .  A
C370        C506   1.482       .  S
C371        H374   1.084       .  S
H373        C547   1.083   1_554  S
C375        C376   1.403       .  A
C375        C380   1.405       .  A
C375        C496   1.477       .  S
C376        C377   1.407       .  A
C376        H381   1.084       .  S
C377        C378   1.405       .  A
C377        C394   1.470       .  S
C378        C379   1.397       .  A
C378        H560   1.083       .  S
C379        C380   1.400       .  A
C379        C486   1.483       .  S
C380        H383   1.085       .  S
H382        C556   1.083   1_554  S
C384        C385   1.400       .  A
C384        C389   1.402       .  A
C384        C499   1.473       .  S
C385        C386   1.406       .  A
C385        H390   1.082       .  S
C386        C387   1.406       .  A
C386        C397   1.473       .  S
C387        C388   1.401       .  A
C387        H391   1.084       .  S
C388        C389   1.399       .  A
C388        C476   1.480       .  S
C389        H392   1.084       .  S
In393       O573   2.255   1_554  S
In393       O396   2.221       .  S
In393       O404   2.255       .  S
In393       O398   2.229       .  S
In393       O400   2.221       .  S
In393       O401   2.227       .  S
In393       O580   2.259   1_554  S
In393       O405   2.257       .  S
C394        O578   1.258       .  A
C394        O402   1.260       .  A
O395       In571   2.255       .  S
O395        C403   1.260       .  A
O396        C581   1.258   1_554  A
C397        O404   1.261       .  A
C397        O398   1.258       .  A
C399        O401   1.259       .  A
C399        O405   1.261       .  A
O400        C572   1.258   1_554  A
O402       In571   2.259       .  S
C403        O574   1.258       .  A
C406        C407   1.404       .  A
C406        C411   1.403       .  A
C406        C466   1.478       .  S
C407        C408   1.399       .  A
C407        H412   1.084       .  S
C408        C409   1.398       .  A
C408        C519   1.480       .  S
C409        C410   1.405       .  A
C409        H413   1.084       .  S
C410        C411   1.407       .  A
C410        C452   1.469       .  S
C411        H414   1.084   1_655  S
C415        C416   1.403       .  A
C415        C420   1.402       .  A
C415        C469   1.474       .  S
C416        C417   1.408       .  A
C416        H421   1.084   1_655  S
C417        C418   1.408       .  A
C417        C448   1.475       .  S
C418        C419   1.400       .  A
C418        H600   1.083       .  S
C419        C420   1.397       .  A
C419        C509   1.482       .  S
C420        H423   1.085       .  S
H422        C596   1.083   1_554  S
C424        C425   1.404       .  A
C424        C429   1.404       .  A
C424        C459   1.479       .  S
C425        C426   1.408       .  A
C425        H430   1.084       .  S
C426        C427   1.405       .  A
C426        C443   1.469       .  S
C427        C428   1.397       .  A
C427        H431   1.084       .  S
C428        C429   1.399       .  A
C428        C479   1.480       .  S
C429        H432   1.084       .  S
C433        C434   1.403       .  A
C433        C438   1.402       .  A
C433        C456   1.475       .  S
C434        C435   1.408       .  A
C434        H439   1.084       .  S
C435        C436   1.408       .  A
C435        C446   1.476       .  S
C436        C437   1.400       .  A
C436        H618   1.084       .  S
C437        C438   1.397       .  A
C437        C489   1.483       .  S
C438        H441   1.085       .  S
H440        C614   1.084   1_554  S
In442       O444   2.251       .  S
In442       O445   2.227   1_455  S
In442       O631   2.267   1_554  S
In442       O447   2.228       .  S
C443        O449   1.259       .  A
C443        O451   1.260       .  A
O444        C452   1.260   1_455  A
O445        C452   1.259       .  A
C446        O453   1.262       .  A
C446        O625   1.258       .  A
O447        C624   1.258   1_554  A
C448        O628   1.258       .  A
C448        O454   1.261   1_655  A
O449       In798   2.224       .  S
O450       In798   2.227   1_655  S
O450        C626   1.258   1_554  A
O451       In798   2.253       .  S
O453       In620   2.267       .  S
O454       In976   2.266       .  S
C455        C456   1.404       .  A
C455        C460   1.404       .  A
C455        H462   1.083       .  S
C456        C457   1.408       .  A
C457        C458   1.392       .  A
C457       Br464   1.921       .  S
C458        C459   1.402       .  A
C458        H463   1.084       .  S
C459        C460   1.411       .  A
C460       Br461   1.918       .  S
C465        C466   1.402       .  A
C465        C470   1.392       .  A
C465        H472   1.084       .  S
C466        C467   1.411       .  A
C467        C468   1.404       .  A
C467       Br474   1.918   1_655  S
C468        C469   1.404       .  A
C468        H473   1.084   1_655  S
C469        C470   1.407       .  A
C470       Br471   1.921       .  S
C475        C476   1.404       .  A
C475        C480   1.396       .  A
C475        H482   1.083       .  S
C476        C477   1.410       .  A
C477        C478   1.400       .  A
C477       Br840   1.920       .  S
C478        C479   1.405       .  A
C478        H483   1.083       .  S
C479        C480   1.410       .  A
C480       Br481   1.921       .  S
C485        C486   1.403       .  A
C485        C490   1.398       .  A
C485        H492   1.083       .  S
C486        C487   1.413       .  A
C487        C488   1.400       .  A
C487       Br494   1.922       .  S
C488        C489   1.404       .  A
C488        H493   1.083       .  S
C489        C490   1.413       .  A
C490       Br491   1.921       .  S
C495        C852   1.402       .  A
C495        C500   1.394       .  A
C495        H502   1.083       .  S
C496        C497   1.410       .  A
C497        C498   1.402       .  A
C497       Br504   1.918       .  S
C498        H503   1.084       .  S
C499        C854   1.403       .  A
C499        C500   1.406       .  A
C500       Br501   1.920       .  S
C505        C506   1.402       .  A
C505        C510   1.398       .  A
C505        H512   1.083       .  S
C506        C507   1.413       .  A
C507        C508   1.399       .  A
C507       Br514   1.922       .  S
C508        C509   1.404       .  A
C508        H513   1.083       .  S
C509        C510   1.413       .  A
C510       Br511   1.921       .  S
C515        C516   1.404       .  A
C515        C520   1.397       .  A
C515        H522   1.083       .  S
C516        C517   1.411       .  A
C517        C518   1.399       .  A
C518        C519   1.405       .  A
C518        H523   1.083       .  S
C519        C520   1.410       .  A
C520       Br521   1.921       .  S
Br524       C873   1.921       .  S
C525        C526   1.402       .  A
C525        C530   1.397       .  A
C525        H532   1.083       .  S
C526        C527   1.406       .  A
C528        C883   1.399       .  A
C528        C529   1.402       .  A
C528        H533   1.083       .  S
C529        C886   1.407       .  A
C530       Br531   1.919       .  S
Br534       C883   1.918       .  S
C535        C536   1.400       .  A
C535        C540   1.401       .  A
C535        C704   1.470       .  S
C536        C537   1.398       .  A
C536        H541   1.084       .  S
C537        C538   1.401       .  A
C537        C694   1.481       .  S
C538        C539   1.407       .  A
C538        H542   1.084       .  S
C539        C540   1.407       .  A
C539        C577   1.473       .  S
C540        H543   1.084       .  S
C544        C545   1.401       .  A
C544        C549   1.403       .  A
C544        C707   1.472       .  S
C545        C546   1.405       .  A
C545        H550   1.085       .  S
C546        C547   1.404       .  A
C546        C581   1.469       .  S
C547        C548   1.398       .  A
C548        C549   1.401       .  A
C548        C684   1.482       .  S
C549        H552   1.084       .  S
C553        C554   1.403       .  A
C553        C558   1.405       .  A
C553        C674   1.477       .  S
C554        C555   1.407       .  A
C554        H559   1.084       .  S
C555        C556   1.405       .  A
C555        C572   1.470       .  S
C556        C557   1.397       .  A
C557        C558   1.400       .  A
C557        C664   1.483       .  S
C558        H561   1.085       .  S
C562        C563   1.400       .  A
C562        C567   1.402       .  A
C562        C677   1.473       .  S
C563        C564   1.406       .  A
C563        H568   1.082       .  S
C564        C565   1.406       .  A
C564        C575   1.473       .  S
C565        C566   1.401       .  A
C565        H569   1.084       .  S
C566        C567   1.399       .  A
C566        C654   1.480       .  S
C567        H570   1.084       .  S
In571       O574   2.221       .  S
In571       O582   2.255       .  S
In571       O576   2.229       .  S
In571       O578   2.221       .  S
In571       O579   2.227       .  S
In571       O583   2.257       .  S
C572        O580   1.260       .  A
O573        C581   1.260       .  A
C575        O582   1.261       .  A
C575        O576   1.258       .  A
C577        O579   1.259       .  A
C577        O583   1.261       .  A
C584        C585   1.404       .  A
C584        C589   1.403       .  A
C584        C644   1.478       .  S
C585        C586   1.399       .  A
C585        H590   1.084       .  S
C586        C587   1.398       .  A
C586        C697   1.480       .  S
C587        C588   1.405       .  A
C587        H591   1.084       .  S
C588        C589   1.407       .  A
C588        C630   1.469       .  S
C589        H592   1.084   1_655  S
C593        C594   1.403       .  A
C593        C598   1.402       .  A
C593        C647   1.474       .  S
C594        C595   1.408       .  A
C594        H599   1.084   1_655  S
C595        C596   1.408       .  A
C595        C626   1.475       .  S
C596        C597   1.400       .  A
C597        C598   1.397       .  A
C597        C687   1.482       .  S
C598        H601   1.085       .  S
C602        C603   1.404       .  A
C602        C607   1.404       .  A
C602        C637   1.479       .  S
C603        C604   1.408       .  A
C603        H608   1.084       .  S
C604        C605   1.405       .  A
C604        C621   1.469       .  S
C605        C606   1.397       .  A
C605        H609   1.084       .  S
C606        C607   1.399       .  A
C606        C657   1.480       .  S
C607        H610   1.084       .  S
C611        C612   1.403       .  A
C611        C616   1.402       .  A
C611        C634   1.475       .  S
C612        C613   1.408       .  A
C612        H617   1.084       .  S
C613        C614   1.408       .  A
C613        C624   1.476       .  S
C614        C615   1.400       .  A
C615        C616   1.397       .  A
C615        C667   1.483       .  S
C616        H619   1.085       .  S
In620       O622   2.251       .  S
In620       O623   2.227   1_455  S
In620       O625   2.228       .  S
C621        O627   1.259       .  A
C621        O629   1.260       .  A
O622        C630   1.260   1_455  A
O623        C630   1.259       .  A
C624        O631   1.262       .  A
C626        O632   1.261   1_655  A
O627       In976   2.224       .  S
O628       In976   2.227   1_655  S
O629       In976   2.253       .  S
O632       In798   2.266   1_556  S
C633        C634   1.404       .  A
C633        C638   1.404       .  A
C633        H640   1.083       .  S
C634        C635   1.408       .  A
C635        C636   1.392       .  A
C635       Br642   1.921       .  S
C636        C637   1.402       .  A
C636        H641   1.084       .  S
C637        C638   1.411       .  A
C638       Br639   1.918       .  S
C643        C644   1.402       .  A
C643        C648   1.392       .  A
C643        H650   1.084       .  S
C644        C645   1.411       .  A
C645        C646   1.404       .  A
C645       Br652   1.918   1_655  S
C646        C647   1.404       .  A
C646        H651   1.084   1_655  S
C647        C648   1.407       .  A
C648       Br649   1.921       .  S
C653        C654   1.404       .  A
C653        C658   1.396       .  A
C653        H660   1.083       .  S
C654        C655   1.410       .  A
C655        C656   1.400       .  A
C655      Br1018   1.920       .  S
C656        C657   1.405       .  A
C656        H661   1.083       .  S
C657        C658   1.410       .  A
C658       Br659   1.921       .  S
C663        C664   1.403       .  A
C663        C668   1.398       .  A
C663        H670   1.083       .  S
C664        C665   1.413       .  A
C665        C666   1.400       .  A
C665       Br672   1.922       .  S
C666        C667   1.404       .  A
C666        H671   1.083       .  S
C667        C668   1.413       .  A
C668       Br669   1.921       .  S
C673       C1030   1.402       .  A
C673        C678   1.394       .  A
C673        H680   1.083       .  S
C674        C675   1.410       .  A
C675        C676   1.402       .  A
C675       Br682   1.918       .  S
C676        H681   1.084       .  S
C677       C1032   1.403       .  A
C677        C678   1.406       .  A
C678       Br679   1.920       .  S
C683        C684   1.402       .  A
C683        C688   1.398       .  A
C683        H690   1.083       .  S
C684        C685   1.413       .  A
C685        C686   1.399       .  A
C685       Br692   1.922       .  S
C686        C687   1.404       .  A
C686        H691   1.083       .  S
C687        C688   1.413       .  A
C688       Br689   1.921       .  S
C693        C694   1.404       .  A
C693        C698   1.397       .  A
C693        H700   1.083       .  S
C694        C695   1.411       .  A
C695        C696   1.399       .  A
C696        C697   1.405       .  A
C696        H701   1.083       .  S
C697        C698   1.410       .  A
C698       Br699   1.921       .  S
Br702      C1051   1.921       .  S
C703        C704   1.402       .  A
C703        C708   1.397       .  A
C703        H710   1.083       .  S
C704        C705   1.406       .  A
C706       C1061   1.399       .  A
C706        C707   1.402       .  A
C706        H711   1.083       .  S
C707       C1064   1.407       .  A
C708       Br709   1.919       .  S
Br712      C1061   1.918       .  S
C713        C714   1.400       .  A
C713        C718   1.401       .  A
C713        C882   1.470       .  S
C714        C715   1.398       .  A
C714        H719   1.084       .  S
C715        C716   1.401       .  A
C715        C872   1.481       .  S
C716        C717   1.407       .  A
C716        H720   1.084       .  S
C717        C718   1.407       .  A
C717        C755   1.473       .  S
C718        H721   1.084       .  S
C722        C723   1.401       .  A
C722        C727   1.403       .  A
C722        C885   1.472       .  S
C723        C724   1.405       .  A
C723        H728   1.085       .  S
C724        C725   1.404       .  A
C724        C759   1.469       .  S
C725        C726   1.398       .  A
C725        H907   1.083       .  S
C726        C727   1.401       .  A
C726        C862   1.482       .  S
C727        H730   1.084       .  S
H729        C903   1.083   1_554  S
C731        C732   1.403       .  A
C731        C736   1.405       .  A
C731        C852   1.477       .  S
C732        C733   1.407       .  A
C732        H737   1.084       .  S
C733        C734   1.405       .  A
C733        C750   1.470       .  S
C734        C735   1.397       .  A
C734        H916   1.083       .  S
C735        C736   1.400       .  A
C735        C842   1.483       .  S
C736        H739   1.085       .  S
H738        C912   1.083   1_554  S
C740        C741   1.400       .  A
C740        C745   1.402       .  A
C740        C855   1.473       .  S
C741        C742   1.406       .  A
C741        H746   1.082       .  S
C742        C743   1.406       .  A
C742        C753   1.473       .  S
C743        C744   1.401       .  A
C743        H747   1.084       .  S
C744        C745   1.399       .  A
C744        C832   1.480       .  S
C745        H748   1.084       .  S
In749       O929   2.255   1_554  S
In749       O752   2.221       .  S
In749       O760   2.255       .  S
In749       O754   2.229       .  S
In749       O756   2.221       .  S
In749       O757   2.227       .  S
In749       O936   2.259   1_554  S
In749       O761   2.257       .  S
C750        O934   1.258       .  A
C750        O758   1.260       .  A
O751       In927   2.255       .  S
O751        C759   1.260       .  A
O752        C937   1.258   1_554  A
C753        O760   1.261       .  A
C753        O754   1.258       .  A
C755        O757   1.259       .  A
C755        O761   1.261       .  A
O756        C928   1.258   1_554  A
O758       In927   2.259       .  S
C759        O930   1.258       .  A
C762        C763   1.404       .  A
C762        C767   1.403       .  A
C762        C822   1.478       .  S
C763        C764   1.399       .  A
C763        H768   1.084       .  S
C764        C765   1.398       .  A
C764        C875   1.480       .  S
C765        C766   1.405       .  A
C765        H769   1.084       .  S
C766        C767   1.407       .  A
C766        C808   1.469       .  S
C767        H770   1.084   1_655  S
C771        C772   1.403       .  A
C771        C776   1.402       .  A
C771        C825   1.474       .  S
C772        C773   1.408       .  A
C772        H777   1.084   1_655  S
C773        C774   1.408       .  A
C773        C804   1.475       .  S
C774        C775   1.400       .  A
C774        H956   1.083       .  S
C775        C776   1.397       .  A
C775        C865   1.482       .  S
C776        H779   1.085       .  S
H778        C952   1.083   1_554  S
C780        C781   1.404       .  A
C780        C785   1.404       .  A
C780        C815   1.479       .  S
C781        C782   1.408       .  A
C781        H786   1.084       .  S
C782        C783   1.405       .  A
C782        C799   1.469       .  S
C783        C784   1.397       .  A
C783        H787   1.084       .  S
C784        C785   1.399       .  A
C784        C835   1.480       .  S
C785        H788   1.084       .  S
C789        C790   1.403       .  A
C789        C794   1.402       .  A
C789        C812   1.475       .  S
C790        C791   1.408       .  A
C790        H795   1.084       .  S
C791        C792   1.408       .  A
C791        C802   1.476       .  S
C792        C793   1.400       .  A
C792        H974   1.084       .  S
C793        C794   1.397       .  A
C793        C845   1.483       .  S
C794        H797   1.085       .  S
H796        C970   1.084   1_554  S
In798       O800   2.251       .  S
In798       O801   2.227   1_455  S
In798       O987   2.267   1_554  S
In798       O803   2.228       .  S
C799        O805   1.259       .  A
C799        O807   1.260       .  A
O800        C808   1.260   1_455  A
O801        C808   1.259       .  A
C802        O809   1.262       .  A
C802        O981   1.258       .  A
O803        C980   1.258   1_554  A
C804        O984   1.258       .  A
C804        O810   1.261   1_655  A
O806        C982   1.258   1_554  A
O809       In976   2.267       .  S
C811        C812   1.404       .  A
C811        C816   1.404       .  A
C811        H818   1.083       .  S
C812        C813   1.408       .  A
C813        C814   1.392       .  A
C813       Br820   1.921       .  S
C814        C815   1.402       .  A
C814        H819   1.084       .  S
C815        C816   1.411       .  A
C816       Br817   1.918       .  S
C821        C822   1.402       .  A
C821        C826   1.392       .  A
C821        H828   1.084       .  S
C822        C823   1.411       .  A
C823        C824   1.404       .  A
C823       Br830   1.918   1_655  S
C824        C825   1.404       .  A
C824        H829   1.084   1_655  S
C825        C826   1.407       .  A
C826       Br827   1.921       .  S
C831        C832   1.404       .  A
C831        C836   1.396       .  A
C831        H838   1.083       .  S
C832        C833   1.410       .  A
C833        C834   1.400       .  A
C834        C835   1.405       .  A
C834        H839   1.083       .  S
C835        C836   1.410       .  A
C836       Br837   1.921       .  S
C841        C842   1.403       .  A
C841        C846   1.398       .  A
C841        H848   1.083       .  S
C842        C843   1.413       .  A
C843        C844   1.400       .  A
C843       Br850   1.922       .  S
C844        C845   1.404       .  A
C844        H849   1.083       .  S
C845        C846   1.413       .  A
C846       Br847   1.921       .  S
C851        C856   1.394       .  A
C851        H858   1.083       .  S
C852        C853   1.410       .  A
C853        C854   1.402       .  A
C853       Br860   1.918       .  S
C854        H859   1.084       .  S
C855        C856   1.406       .  A
C856       Br857   1.920       .  S
C861        C862   1.402       .  A
C861        C866   1.398       .  A
C861        H868   1.083       .  S
C862        C863   1.413       .  A
C863        C864   1.399       .  A
C863       Br870   1.922       .  S
C864        C865   1.404       .  A
C864        H869   1.083       .  S
C865        C866   1.413       .  A
C866       Br867   1.921   1_565  S
C871        C872   1.404       .  A
C871        C876   1.397       .  A
C871        H878   1.083       .  S
C872        C873   1.411       .  A
C873        C874   1.399       .  A
C874        C875   1.405       .  A
C874        H879   1.083       .  S
C875        C876   1.410       .  A
C876       Br877   1.921       .  S
C881        C882   1.402       .  A
C881        C886   1.397       .  A
C881        H888   1.083       .  S
C882        C883   1.406       .  A
C884        C885   1.402       .  A
C884        H889   1.083       .  S
C886       Br887   1.919       .  S
C891        C892   1.400       .  A
C891        C896   1.401       .  A
C891       C1060   1.470       .  S
C892        C893   1.398       .  A
C892        H897   1.084       .  S
C893        C894   1.401       .  A
C893       C1050   1.481       .  S
C894        C895   1.407       .  A
C894        H898   1.084       .  S
C895        C896   1.407       .  A
C895        C933   1.473       .  S
C896        H899   1.084       .  S
C900        C901   1.401       .  A
C900        C905   1.403       .  A
C900       C1063   1.472       .  S
C901        C902   1.405       .  A
C901        H906   1.085       .  S
C902        C903   1.404       .  A
C902        C937   1.469       .  S
C903        C904   1.398       .  A
C904        C905   1.401       .  A
C904       C1040   1.482       .  S
C905        H908   1.084       .  S
C909        C910   1.403       .  A
C909        C914   1.405       .  A
C909       C1030   1.477       .  S
C910        C911   1.407       .  A
C910        H915   1.084       .  S
C911        C912   1.405       .  A
C911        C928   1.470       .  S
C912        C913   1.397       .  A
C913        C914   1.400       .  A
C913       C1020   1.483       .  S
C914        H917   1.085       .  S
C918        C919   1.400       .  A
C918        C923   1.402       .  A
C918       C1033   1.473       .  S
C919        C920   1.406       .  A
C919        H924   1.082       .  S
C920        C921   1.406       .  A
C920        C931   1.473       .  S
C921        C922   1.401       .  A
C921        H925   1.084       .  S
C922        C923   1.399       .  A
C922       C1010   1.480       .  S
C923        H926   1.084       .  S
In927       O930   2.221       .  S
In927       O938   2.255       .  S
In927       O932   2.229       .  S
In927       O934   2.221       .  S
In927       O935   2.227       .  S
In927       O939   2.257       .  S
C928        O936   1.260       .  A
O929        C937   1.260       .  A
C931        O938   1.261       .  A
C931        O932   1.258       .  A
C933        O935   1.259       .  A
C933        O939   1.261       .  A
C940        C941   1.404       .  A
C940        C945   1.403       .  A
C940       C1000   1.478       .  S
C941        C942   1.399       .  A
C941        H946   1.084       .  S
C942        C943   1.398       .  A
C942       C1053   1.480       .  S
C943        C944   1.405       .  A
C943        H947   1.084       .  S
C944        C945   1.407       .  A
C944        C986   1.469       .  S
C945        H948   1.084   1_655  S
C949        C950   1.403       .  A
C949        C954   1.402       .  A
C949       C1003   1.474       .  S
C950        C951   1.408       .  A
C950        H955   1.084   1_655  S
C951        C952   1.408       .  A
C951        C982   1.475       .  S
C952        C953   1.400       .  A
C953        C954   1.397       .  A
C953       C1043   1.482       .  S
C954        H957   1.085       .  S
C958        C959   1.404       .  A
C958        C963   1.404       .  A
C958        C993   1.479       .  S
C959        C960   1.408       .  A
C959        H964   1.084       .  S
C960        C961   1.405       .  A
C960        C977   1.469       .  S
C961        C962   1.397       .  A
C961        H965   1.084       .  S
C962        C963   1.399       .  A
C962       C1013   1.480       .  S
C963        H966   1.084       .  S
C967        C968   1.403       .  A
C967        C972   1.402       .  A
C967        C990   1.475       .  S
C968        C969   1.408       .  A
C968        H973   1.084       .  S
C969        C970   1.408       .  A
C969        C980   1.476       .  S
C970        C971   1.400       .  A
C971        C972   1.397       .  A
C971       C1023   1.483       .  S
C972        H975   1.085       .  S
In976       O978   2.251       .  S
In976       O979   2.227   1_455  S
In976       O981   2.228       .  S
C977        O983   1.259       .  A
C977        O985   1.260       .  A
O978        C986   1.260   1_455  A
O979        C986   1.259       .  A
C980        O987   1.262       .  A
C982        O988   1.261   1_655  A
C989        C990   1.404       .  A
C989        C994   1.404       .  A
C989        H996   1.083       .  S
C990        C991   1.408       .  A
C991        C992   1.392       .  A
C991       Br998   1.921       .  S
C992        C993   1.402       .  A
C992        H997   1.084       .  S
C993        C994   1.411       .  A
C994       Br995   1.918       .  S
C999       C1000   1.402       .  A
C999       C1004   1.392       .  A
C999       H1006   1.084       .  S
C1000      C1001   1.411       .  A
C1001      C1002   1.404       .  A
C1001     Br1008   1.918   1_655  S
C1002      C1003   1.404       .  A
C1002      H1007   1.084   1_655  S
C1003      C1004   1.407       .  A
C1004     Br1005   1.921       .  S
C1009      C1010   1.404       .  A
C1009      C1014   1.396       .  A
C1009      H1016   1.083       .  S
C1010      C1011   1.410       .  A
C1011      C1012   1.400       .  A
C1012      C1013   1.405       .  A
C1012      H1017   1.083       .  S
C1013      C1014   1.410       .  A
C1014     Br1015   1.921       .  S
C1019      C1020   1.403       .  A
C1019      C1024   1.398       .  A
C1019      H1026   1.083       .  S
C1020      C1021   1.413       .  A
C1021      C1022   1.400       .  A
C1021     Br1028   1.922       .  S
C1022      C1023   1.404       .  A
C1022      H1027   1.083       .  S
C1023      C1024   1.413       .  A
C1024     Br1025   1.921       .  S
C1029      C1034   1.394       .  A
C1029      H1036   1.083       .  S
C1030      C1031   1.410       .  A
C1031      C1032   1.402       .  A
C1031     Br1038   1.918       .  S
C1032      H1037   1.084       .  S
C1033      C1034   1.406       .  A
C1034     Br1035   1.920       .  S
C1039      C1040   1.402       .  A
C1039      C1044   1.398       .  A
C1039      H1046   1.083       .  S
C1040      C1041   1.413       .  A
C1041      C1042   1.399       .  A
C1041     Br1048   1.922       .  S
C1042      C1043   1.404       .  A
C1042      H1047   1.083       .  S
C1043      C1044   1.413       .  A
C1044     Br1045   1.921   1_565  S
C1049      C1050   1.404       .  A
C1049      C1054   1.397       .  A
C1049      H1056   1.083       .  S
C1050      C1051   1.411       .  A
C1051      C1052   1.399       .  A
C1052      C1053   1.405       .  A
C1052      H1057   1.083       .  S
C1053      C1054   1.410       .  A
C1054     Br1055   1.921       .  S
C1059      C1060   1.402       .  A
C1059      C1064   1.397       .  A
C1059      H1066   1.083       .  S
C1060      C1061   1.406       .  A
C1062      C1063   1.402       .  A
C1062      H1067   1.083       .  S
C1064     Br1065   1.919       .  S
