geometry optimzed in LAMMPS
_audit_creation_date              2020-11-30 
_audit_creation_method            'lammps2cif' 
_symmetry_space_group_name_H-M    'P1' 
_symmetry_Int_Tables_number       1 
_symmetry_cell_setting            triclinic 
loop_ 
_symmetry_equiv_pos_as_xyz 
  x,y,z 
_cell_length_a                    74.36342723 
_cell_length_b                    74.41775553338508 
_cell_length_c                    74.39070170143077 
_cell_angle_alpha                 90.18811591813763 
_cell_angle_beta                  90.38157997828694 
_cell_angle_gamma                 90.2260165177903 
loop_ 
_atom_site_label 
_atom_site_type_symbol 
_atom_site_fract_x 
_atom_site_fract_y 
_atom_site_fract_z 
_atom_site_charge 
O1          O  0.50717505  0.47936816  0.45162511    -0.77600
C2          C  0.46130319  0.51339888  0.45333638     0.83400
O3          O  0.52661578  0.52796662  0.49106860    -0.78700
O4          O  0.46401469  0.52547636  0.50772012    -0.80200
O5          O  0.47423540  0.46056083  0.50551560    -0.80000
O6          O  0.50371074  0.45733837  0.47134776    -0.78600
Zn7        Zn  0.49900101  0.50177640  0.46423351     1.55700
O8          O  0.45386200  0.48243539  0.50491421    -0.80000
Cd9        Cd  0.49646572  0.47187627  0.49375296     1.59700
Cd10       Cd  0.50773309  0.51307902  0.50624026     1.59600
O11         O  0.51717624  0.46908853  0.51163914    -0.80000
O12         O  0.49290007  0.49780124  0.48898111    -1.90500
Cd13       Cd  0.46696439  0.50303320  0.49204463     1.59900
O14         O  0.52227577  0.49610874  0.52390973    -0.80000
O15         O  0.45431998  0.50860386  0.46812048    -0.78600
C16         C  0.52963631  0.52757515  0.47414368     0.83900
C17         C  0.50851823  0.46291427  0.45597143     0.83600
O18         O  0.47813289  0.51213359  0.45049695    -0.77600
C19         C  0.45874435  0.46667229  0.50929335     0.84400
O20         O  0.51999943  0.51832703  0.46334091    -0.77700
C21         C  0.52519877  0.47917809  0.52298538     0.84500
C22         C  0.47395942  0.53418062  0.51868622     0.84800
O23         O  0.49072276  0.53073720  0.52071310    -0.80100
O24         O  0.48460917  0.21051677  0.23199096    -0.77600
C25         C  0.53605463  0.21679106  0.26241382     0.83400
O26         O  0.47254200  0.25351787  0.27838553    -0.78700
O27         O  0.53282716  0.27510454  0.26373773    -0.80200
O28         O  0.51578909  0.26200882  0.20350618    -0.80000
O29         O  0.48506438  0.22824479  0.20797847    -0.78600
Zn30       Zn  0.49721963  0.22474345  0.25174853     1.55700
O31         O  0.53921644  0.26142312  0.22236075    -0.80000
Cd32       Cd  0.49508010  0.25175293  0.21884521     1.59700
Cd33       Cd  0.48838940  0.26708227  0.25983067     1.59600
O34         O  0.47433109  0.26947479  0.21702509    -0.80000
O35         O  0.50204629  0.24920767  0.24455310    -1.90500
Cd36       Cd  0.52829620  0.25388844  0.24663115     1.59900
O37         O  0.47126597  0.28258432  0.24388870    -0.80000
O38         O  0.54170607  0.23226818  0.25777203    -0.78600
C39         C  0.47190452  0.23676278  0.28181544     0.83900
C40         C  0.48078256  0.21353505  0.21554595     0.83600
O41         O  0.51974039  0.21200017  0.26004547    -0.77600
C42         C  0.53232305  0.26498255  0.20706612     0.84400
O43         O  0.48081825  0.22525431  0.27289908    -0.77700
C44         C  0.46686467  0.28079358  0.22737295     0.84500
C45         C  0.52322851  0.28503903  0.27375538     0.84800
O46         O  0.50612580  0.28366899  0.27422438    -0.80100
C47         C  0.79269108  0.77332928  0.79542920     0.81100
N48         N  0.77859458  0.78197909  0.80304234    -0.77200
C49         C  0.77157755  0.79698680  0.79538711     0.83500
N50         N  0.77895780  0.80348824  0.78000238    -0.77100
C51         C  0.79323081  0.79502438  0.77234353     0.83600
N52         N  0.79996613  0.77994460  0.78010434    -0.78900
C53         C  0.76887871  0.96229808  0.95757022     0.81100
N54         N  0.77508232  0.97828009  0.95118648    -0.77200
C55         C  0.78901698  0.98682719  0.95954295     0.83500
N56         N  0.79667070  0.97934823  0.97426120    -0.77100
C57         C  0.79081086  0.96338068  0.98067525     0.83600
N58         N  0.77692666  0.95478751  0.97223920    -0.78900
C59         C  0.94668034  0.79377018  0.97477063     0.81100
N60         N  0.96125788  0.80103524  0.96654495    -0.77200
C61         C  0.96731720  0.79398254  0.95083807     0.83500
N62         N  0.95890459  0.77943721  0.94354346    -0.77100
C63         C  0.94437347  0.77207373  0.95168668     0.83600
N64         N  0.93822687  0.77937497  0.96720281    -0.78900
C65         C  0.95336639  0.96274978  0.76844051     0.81100
N66         N  0.94570365  0.97752329  0.77581004    -0.77200
C67         C  0.95199377  0.98456014  0.79147751     0.83500
N68         N  0.96615230  0.97662283  0.79991481    -0.77100
C69         C  0.97398820  0.96177960  0.79268546     0.83600
N70         N  0.96751937  0.95488027  0.77693590    -0.78900
N71         N  0.07730381  0.87282905  0.87291616    -0.35700
N72         N  0.10488269  0.85393860  0.89384115    -0.56300
N73         N  0.13259343  0.87002386  0.87124352    -0.35700
N74         N  0.10496282  0.89092520  0.85212755    -0.56300
C75         C  0.06685661  0.86514415  0.88557377     0.27900
C76         C  0.06689801  0.88442503  0.86355053     0.27900
C77         C  0.14294505  0.86222322  0.88407682     0.27900
C78         C  0.14298408  0.88220530  0.86262034     0.27900
C79         C  0.09008495  0.84588156  0.90060294     0.36500
C80         C  0.11918450  0.84441658  0.89972849     0.36500
C81         C  0.09039583  0.89710796  0.84314487     0.36500
C82         C  0.11955728  0.89641580  0.84291311     0.36500
C83         C  0.04952394  0.87185698  0.88415072    -0.21000
C84         C  0.04952527  0.88391184  0.87023746    -0.21000
C85         C  0.16021051  0.86928540  0.88331776    -0.21000
C86         C  0.16024275  0.88182881  0.86980395    -0.21000
C87         C  0.09501800  0.83128402  0.91102795    -0.22100
C88         C  0.11343113  0.83031118  0.91041918    -0.22100
C89         C  0.09579067  0.90680602  0.82822401    -0.22100
C90         C  0.11425962  0.90637204  0.82807879    -0.22100
C91         C  0.07217410  0.85161436  0.89782971    -0.17400
C92         C  0.07234424  0.89492323  0.84867869    -0.17400
C93         C  0.13760561  0.89338557  0.84815883    -0.17400
C94         C  0.13739869  0.84875776  0.89633938    -0.17400
H95         H  0.03795006  0.86828974  0.89214996     0.15500
H96         H  0.03792175  0.89128988  0.86551535     0.15500
H97         H  0.17161820  0.86591159  0.89174163     0.15500
H98         H  0.17169579  0.88986938  0.86582607     0.15500
H99         H  0.08626041  0.82220197  0.91823179     0.13800
H100        H  0.12162652  0.82032065  0.91707227     0.13800
H101        H  0.08733026  0.91365855  0.81856215     0.13800
H102        H  0.12280657  0.91279084  0.81826040     0.13800
H103        H  0.09047904  0.86970371  0.87031996     0.27000
H104        H  0.11946085  0.86672625  0.86807875     0.27000
N105        N  0.87787093  0.87957628  0.08410655    -0.35700
N106        N  0.85910972  0.90140842  0.11090854    -0.56300
N107        N  0.87948664  0.88351468  0.13929739    -0.35700
N108        N  0.90027695  0.86373846  0.11236416    -0.56300
C109        C  0.86796939  0.89011182  0.07305927     0.27900
C110        C  0.88987311  0.87061069  0.07385016     0.27900
C111        C  0.87155650  0.89668887  0.14896341     0.27900
C112        C  0.89256471  0.87635416  0.14972733     0.27900
C113        C  0.84946461  0.90615655  0.09621194     0.36500
C114        C  0.85077490  0.90866635  0.12529946     0.36500
C115        C  0.90615849  0.85395149  0.09824887     0.36500
C116        C  0.90647760  0.85557046  0.12736099     0.36500
C117        C  0.87359224  0.88760145  0.05548361    -0.21000
C118        C  0.88738907  0.87536204  0.05598300    -0.21000
C119        C  0.87967531  0.89782283  0.16578685    -0.21000
C120        C  0.89286043  0.88494525  0.16629169    -0.21000
C121        C  0.83503562  0.91673737  0.10128334    -0.22100
C122        C  0.83584130  0.91829175  0.11967916    -0.22100
C123        C  0.91651851  0.83972370  0.10430324    -0.22100
C124        C  0.91664692  0.84069678  0.12274789    -0.22100
C125        C  0.85370391  0.90160306  0.07821424    -0.17400
C126        C  0.90251307  0.85770928  0.07995433    -0.17400
C127        C  0.90354513  0.86160122  0.14514612    -0.17400
C128        C  0.85676984  0.90727941  0.14337146    -0.17400
H129        H  0.86829717  0.89390528  0.04348420     0.15500
H130        H  0.89466404  0.87043724  0.04442932     0.15500
H131        H  0.87639130  0.90691911  0.17665137     0.15500
H132        H  0.90164821  0.88219721  0.17760086     0.15500
H133        H  0.82497231  0.92274383  0.09263687     0.13800
H134        H  0.82649263  0.92569452  0.12794143     0.13800
H135        H  0.92312087  0.82957392  0.09628011     0.13800
H136        H  0.92347133  0.83151506  0.13172495     0.13800
H137        H  0.87606250  0.87807712  0.09767858     0.27000
H138        H  0.87552033  0.87889025  0.12681139     0.27000
N139        N  0.87361615  0.87709714  0.66389319    -0.35700
N140        N  0.89548641  0.89213342  0.63507922    -0.56300
N141        N  0.87265409  0.87390264  0.60844032    -0.35700
N142        N  0.85273711  0.85671303  0.63757394    -0.56300
C143        C  0.88748344  0.88413999  0.67346670     0.27900
C144        C  0.86486116  0.86547023  0.67475576     0.27900
C145        C  0.88634524  0.87966101  0.59799744     0.27900
C146        C  0.86399325  0.86061945  0.59933701     0.27900
C147        C  0.90213083  0.90176284  0.64909556     0.36500
C148        C  0.90169821  0.90003147  0.61998693     0.36500
C149        C  0.84281444  0.85350354  0.65240931     0.36500
C150        C  0.84263593  0.85141201  0.62333285     0.36500
C151        C  0.88737451  0.87709885  0.69071285    -0.21000
C152        C  0.87312954  0.86531674  0.69151804    -0.21000
C153        C  0.88622213  0.87014179  0.58194594    -0.21000
C154        C  0.87220680  0.85805500  0.58283339    -0.21000
C155        C  0.91281791  0.91569244  0.64289246    -0.22100
C156        C  0.91252980  0.91461064  0.62444775    -0.22100
C157        C  0.82638238  0.84603139  0.64758717    -0.22100
C158        C  0.82622374  0.84480687  0.62916790    -0.22100
C159        C  0.89959328  0.89748082  0.66740939    -0.17400
C160        C  0.84902589  0.85582285  0.67025629    -0.17400
C161        C  0.84856684  0.85114693  0.60529507    -0.17400
C162        C  0.89862264  0.89362506  0.60230186    -0.17400
H163        H  0.89650104  0.88020708  0.70168305     0.15500
H164        H  0.86923488  0.85767923  0.70322308     0.15500
H165        H  0.89539214  0.87162771  0.57080435     0.15500
H166        H  0.86855537  0.84843554  0.57248569     0.15500
H167        H  0.92018051  0.92550923  0.65082648     0.13800
H168        H  0.91960439  0.92345976  0.61536807     0.13800
H169        H  0.81569891  0.84171693  0.65640362     0.13800
H170        H  0.81531619  0.83949725  0.62101751     0.13800
H171        H  0.86973013  0.88082192  0.65102433     0.27000
H172        H  0.86893512  0.87932005  0.62073077     0.27000
N173        N  0.87241969  0.66074414  0.87078257    -0.35700
N174        N  0.85436522  0.63444810  0.84782121    -0.56300
N175        N  0.87114898  0.60539177  0.86836144    -0.35700
N176        N  0.89154778  0.63185483  0.88938327    -0.56300
C177        C  0.86537558  0.67160193  0.85798717     0.27900
C178        C  0.88520067  0.67030341  0.87966790     0.27900
C179        C  0.86421725  0.59609601  0.85423304     0.27900
C180        C  0.88344848  0.59470278  0.87643874     0.27900
C181        C  0.84535575  0.64936091  0.84271867     0.36500
C182        C  0.84500878  0.62027653  0.84120156     0.36500
C183        C  0.89795188  0.64596614  0.89902447     0.36500
C184        C  0.89695527  0.61680891  0.89799783     0.36500
C185        C  0.87362009  0.68831739  0.85889633    -0.21000
C186        C  0.88612268  0.68750226  0.87253931    -0.21000
C187        C  0.87215328  0.57926889  0.85343628    -0.21000
C188        C  0.88411661  0.57832367  0.86753425    -0.21000
C189        C  0.83028770  0.64468796  0.83269643    -0.22100
C190        C  0.82997426  0.62626400  0.83186106    -0.22100
C191        C  0.90779184  0.63985125  0.91365248    -0.22100
C192        C  0.90716664  0.62138690  0.91300093    -0.22100
C193        C  0.85116036  0.66714705  0.84604457    -0.17400
C194        C  0.89567107  0.66427055  0.89443312    -0.17400
C195        C  0.89369314  0.59901873  0.89195430    -0.17400
C196        C  0.85052693  0.60212372  0.84238292    -0.17400
H197        H  0.87090790  0.69993457  0.85060900     0.15500
H198        H  0.89492540  0.69838170  0.87670439     0.15500
H199        H  0.86966578  0.56870762  0.84369522     0.15500
H200        H  0.89249788  0.56689649  0.87070212     0.15500
H201        H  0.82057285  0.65361774  0.82658423     0.13800
H202        H  0.81983190  0.61822564  0.82508018     0.13800
H203        H  0.91482080  0.64784868  0.92366328     0.13800
H204        H  0.91369713  0.61237209  0.92235853     0.13800
H205        H  0.86809988  0.64788182  0.87390718     0.27000
H206        H  0.86708865  0.61795647  0.87277865     0.27000
N207        N  0.66312087  0.88400194  0.86961354    -0.35700
N208        N  0.63594384  0.86382785  0.84938165    -0.56300
N209        N  0.60748652  0.88260410  0.86915151    -0.35700
N210        N  0.63480859  0.90490132  0.88714157    -0.56300
C211        C  0.67361022  0.87593962  0.85718079     0.27900
C212        C  0.67306962  0.89713414  0.87749290     0.27900
C213        C  0.59744213  0.87349177  0.85688278     0.27900
C214        C  0.59676924  0.89507062  0.87690629     0.27900
C215        C  0.65077683  0.85513020  0.84358689     0.36500
C216        C  0.62158801  0.85421920  0.84350480     0.36500
C217        C  0.64927022  0.91106513  0.89651011     0.36500
C218        C  0.62003278  0.91050790  0.89607458     0.36500
C219        C  0.69051069  0.88390225  0.85736845    -0.21000
C220        C  0.69016861  0.89725131  0.87015901    -0.21000
C221        C  0.57999602  0.88003654  0.85707505    -0.21000
C222        C  0.57959009  0.89366344  0.86962220    -0.21000
C223        C  0.64582586  0.84001324  0.83379267    -0.22100
C224        C  0.62735567  0.83943969  0.83371830    -0.22100
C225        C  0.64366965  0.92080782  0.91132416    -0.22100
C226        C  0.62520578  0.92041390  0.91108725    -0.22100
C227        C  0.66869469  0.86114184  0.84615447    -0.17400
C228        C  0.66747382  0.90854820  0.89163114    -0.17400
C229        C  0.60191534  0.90738056  0.89066655    -0.17400
C230        C  0.60334774  0.85907142  0.84590984    -0.17400
H231        H  0.70196753  0.88043773  0.84917794     0.15500
H232        H  0.70129096  0.90604046  0.87366230     0.15500
H233        H  0.56868809  0.87548974  0.84900695     0.15500
H234        H  0.56792021  0.90161297  0.87296543     0.15500
H235        H  0.65459822  0.83049058  0.82723092     0.13800
H236        H  0.61912242  0.82936913  0.82706209     0.13800
H237        H  0.65201799  0.92741845  0.92133865     0.13800
H238        H  0.61658888  0.92658537  0.92099145     0.13800
H239        H  0.65025118  0.88017953  0.87320521     0.27000
H240        H  0.62069821  0.87996901  0.87253809     0.27000
N241        N  0.87117237  0.09083097  0.87458998    -0.35700
N242        N  0.85201624  0.11849796  0.89495822    -0.56300
N243        N  0.86870630  0.14613045  0.87269299    -0.35700
N244        N  0.89015725  0.11850153  0.85462430    -0.56300
C245        C  0.86298004  0.08062151  0.88711958     0.27900
C246        C  0.88421051  0.08073394  0.86700737     0.27900
C247        C  0.86060778  0.15669167  0.88501926     0.27900
C248        C  0.87989702  0.15668283  0.86310779     0.27900
C249        C  0.84322832  0.10385797  0.90112983     0.36500
C250        C  0.84316812  0.13299872  0.90132089     0.36500
C251        C  0.89719421  0.10388656  0.84647539     0.36500
C252        C  0.89515167  0.13289371  0.84480935     0.36500
C253        C  0.87069975  0.06369779  0.88735798    -0.21000
C254        C  0.88408923  0.06376805  0.87471756    -0.21000
C255        C  0.86647392  0.17429658  0.88296274    -0.21000
C256        C  0.87857136  0.17430131  0.86911627    -0.21000
C257        C  0.82888898  0.10909056  0.91172815    -0.22100
C258        C  0.82893121  0.12754541  0.91195121    -0.22100
C259        C  0.90699457  0.10906017  0.83156808    -0.22100
C260        C  0.90563758  0.12741026  0.83046569    -0.22100
C261        C  0.84826714  0.08583183  0.89787232    -0.17400
C262        C  0.89555912  0.08601712  0.85270267    -0.17400
C263        C  0.89120609  0.15100983  0.84899999    -0.17400
C264        C  0.84772836  0.15111384  0.89778864    -0.17400
H265        H  0.86705464  0.05242797  0.89576238     0.15500
H266        H  0.89256761  0.05245623  0.87146634     0.15500
H267        H  0.86252244  0.18597365  0.89067330     0.15500
H268        H  0.88570617  0.18596966  0.86417609     0.15500
H269        H  0.81942413  0.10051759  0.91865519     0.13800
H270        H  0.81942114  0.13597882  0.91895315     0.13800
H271        H  0.91439083  0.10053287  0.82244199     0.13800
H272        H  0.91177381  0.13576836  0.82030703     0.13800
H273        H  0.86731773  0.10360607  0.87079435     0.27000
H274        H  0.86633904  0.13261669  0.87051483     0.27000
O275        O  0.27006544  0.45862369  0.23830474    -0.77600
C276        C  0.23496647  0.46495074  0.28468497     0.83400
O277        O  0.22133159  0.49840997  0.21917428    -0.78700
O278        O  0.22751295  0.51967345  0.27880052    -0.80200
O279        O  0.29115859  0.51455109  0.26799431    -0.80000
O280        O  0.29290434  0.47792872  0.24044143    -0.78600
Zn281      Zn  0.24797237  0.47225345  0.24644449     1.55700
O282        O  0.27032673  0.51527876  0.28936067    -0.80000
Cd283      Cd  0.27925095  0.50113927  0.24703671     1.59700
Cd284      Cd  0.23836401  0.51378257  0.23550290     1.59600
O285        O  0.28241712  0.51859350  0.22635895    -0.80000
O286        O  0.25325763  0.49720878  0.25118196    -1.90500
Cd287      Cd  0.24879472  0.50242995  0.27697796     1.59900
O288        O  0.25529129  0.52899987  0.21875290    -0.80000
O289        O  0.24086936  0.47986265  0.29077239    -0.78600
C290        C  0.22063162  0.48141945  0.21701225     0.83900
C291        C  0.28667812  0.46245835  0.23642823     0.83600
O292        O  0.23653651  0.46057512  0.26817039    -0.77600
C293        C  0.28578503  0.51950460  0.28340785     0.84400
O294        O  0.23027530  0.47070347  0.22620958    -0.77700
C295        C  0.27239880  0.52885698  0.21709346     0.84500
C296        C  0.21890551  0.52998265  0.26822129     0.84800
O297        O  0.22201611  0.53048072  0.25134876    -0.80100
O298        O  0.26325888  0.20369290  0.51886086    -0.77600
C299        C  0.21599575  0.21087583  0.48184510     0.83400
O300        O  0.28188958  0.24234427  0.46945621    -0.78700
O301        O  0.22323756  0.26714099  0.47660535    -0.80200
O302        O  0.23145791  0.25509253  0.54049685    -0.80000
O303        O  0.26452691  0.22452976  0.54036344    -0.78600
Zn304      Zn  0.25415795  0.21702153  0.49666516     1.55700
O305        O  0.21131163  0.25801606  0.51843067    -0.80000
Cd306      Cd  0.25416702  0.24666233  0.52757748     1.59700
Cd307      Cd  0.26667984  0.25846330  0.48696694     1.59600
O308        O  0.27233956  0.26697635  0.53125168    -0.80000
O309        O  0.25021250  0.24233423  0.50150300    -1.90500
Cd310      Cd  0.22460144  0.24812190  0.49627214     1.59900
O311        O  0.28383303  0.27338742  0.50436182    -0.80000
O312        O  0.21078336  0.22660342  0.48589724    -0.78600
C313        C  0.28291837  0.22523152  0.46829635     0.83900
C314        C  0.26732192  0.20859484  0.53484810     0.83600
O315        O  0.23181403  0.20539595  0.48563068    -0.77600
C316        C  0.21605107  0.25984759  0.53481681     0.84400
O317        O  0.27346372  0.21489215  0.47809343    -0.77700
C318        C  0.28328882  0.27559933  0.52142702     0.84500
C319        C  0.23433995  0.27715098  0.46838874     0.84800
O320        O  0.25130703  0.27635916  0.47118866    -0.80100
O321        O  0.51593286  0.76399544  0.78714836    -0.77600
C322        C  0.46497213  0.73266165  0.78658965     0.83400
O323        O  0.52743431  0.71401026  0.74941459    -0.78700
O324        O  0.46589452  0.72538599  0.72805630    -0.80200
O325        O  0.48008075  0.78729211  0.73779544    -0.80000
O326        O  0.51605221  0.78509225  0.76600961    -0.78600
Zn327      Zn  0.50292332  0.74292100  0.77567010     1.55700
O328        O  0.45780229  0.76727390  0.73885386    -0.80000
Cd329      Cd  0.50243758  0.77274046  0.74517263     1.59700
Cd330      Cd  0.51079305  0.73078835  0.73417133     1.59600
O331        O  0.51871317  0.77384670  0.72333092    -0.80000
O332        O  0.49686283  0.74731957  0.75077658    -1.90500
Cd333      Cd  0.47041709  0.74419749  0.74768635     1.59900
O334        O  0.52672231  0.74584183  0.71622850    -0.80000
O335        O  0.45836588  0.73528230  0.77099116    -0.78600
C336        C  0.52810248  0.71203224  0.76643928     0.83900
C337        C  0.52037589  0.77957234  0.78162709     0.83600
O338        O  0.48142863  0.73586210  0.79018908    -0.77600
C339        C  0.46368929  0.78292780  0.73526357     0.84400
O340        O  0.51915944  0.72187451  0.77709538    -0.77700
C341        C  0.52740893  0.76281408  0.71368486     0.84500
C342        C  0.47534430  0.71496616  0.71838764     0.84800
O343        O  0.49253475  0.71469788  0.71933906    -0.80100
O344        O  0.20185973  0.73179771  0.97752687    -0.77600
C345        C  0.20156003  0.76396707  0.02688991     0.83400
O346        O  0.24313910  0.77858219  0.96452578    -0.78700
O347        O  0.25669509  0.77250531  0.02727229    -0.80200
O348        O  0.25012867  0.70741780  0.01631105    -0.80000
O349        O  0.22088991  0.70880496  0.97950664    -0.78600
Zn350      Zn  0.21390829  0.75267850  0.98970461     1.55700
O351        O  0.25137557  0.73007876  0.03590365    -0.80000
Cd352      Cd  0.24250438  0.72067392  0.99287681     1.59700
Cd353      Cd  0.25669275  0.76192057  0.98309435     1.59600
O354        O  0.26465097  0.71768520  0.97704687    -0.80000
O355        O  0.23827099  0.74686751  0.99656497    -1.90500
Cd356      Cd  0.24004048  0.75131694  0.02265399     1.59900
O357        O  0.27492396  0.74490295  0.96956621    -0.80000
O358        O  0.21618991  0.75875701  0.03406857    -0.78600
C359        C  0.22619891  0.78106283  0.96289183     0.83900
C360        C  0.20606715  0.71558639  0.97412909     0.83600
O361        O  0.19866650  0.76230204  0.01008158    -0.77600
C362        C  0.25446405  0.71382263  0.03166761     0.84400
O363        O  0.21480064  0.77218092  0.97189872    -0.77700
C364        C  0.27596278  0.72773459  0.96913517     0.84500
C365        C  0.26819341  0.78138720  0.01838963     0.84800
O366        O  0.27075145  0.77866983  0.00158783    -0.80100
O367        O  0.01255902  0.48010951  0.95601688    -0.77600
C368        C  0.96270735  0.51145544  0.95855635     0.83400
O369        O  0.02777462  0.53060449  0.99275648    -0.78700
O370        O  0.96809451  0.52226357  0.01463727    -0.80200
O371        O  0.98129410  0.45956832  0.01221901    -0.80000
O372        O  0.01009552  0.45746543  0.97532949    -0.78600
Zn373      Zn  0.00132924  0.50153133  0.96797826     1.55700
O374        O  0.95892715  0.47938837  0.01034641    -0.80000
Cd375      Cd  0.00219197  0.47153550  0.99812553     1.59700
Cd376      Cd  0.01208834  0.51347908  0.00896578     1.59600
O377        O  0.02403544  0.47033007  0.01490416    -0.80000
O378        O  0.99681099  0.49718853  0.99301977    -1.90500
Cd379      Cd  0.97067933  0.50105560  0.99735001     1.59900
O380        O  0.02916847  0.49807506  0.02534987    -0.80000
O381        O  0.95673164  0.50837297  0.97426497    -0.78600
C382        C  0.02755014  0.53238005  0.97567019     0.83900
C383        C  0.01498665  0.46370803  0.96017052     0.83600
O384        O  0.97908970  0.50878132  0.95459181    -0.77600
C385        C  0.96536067  0.46457462  0.01600627     0.84400
O386        O  0.01801237  0.52230646  0.96555962    -0.77700
C387        C  0.03254844  0.48125520  0.02505046     0.84500
C388        C  0.97833921  0.53149504  0.02488823     0.84800
O389        O  0.99540027  0.52941709  0.02523256    -0.80100
O390        O  0.29182767  0.00860935  0.76946399    -0.77600
C391        C  0.28235957  0.96086794  0.73379544     0.83400
O392        O  0.25080651  0.02639734  0.72269553    -0.78700
O393        O  0.22432231  0.96757588  0.73394427    -0.80200
O394        O  0.23560491  0.97930243  0.79377504    -0.80000
O395        O  0.27446833  0.00484058  0.79342777    -0.78600
Zn396      Zn  0.27701590  0.99864440  0.74869880     1.55700
O397        O  0.23617416  0.95654749  0.77419874    -0.80000
Cd398      Cd  0.25002533  0.99941438  0.78116252     1.59700
Cd399      Cd  0.23583486  0.01085303  0.74071667     1.59600
O400        O  0.23555797  0.02249541  0.78445815    -0.80000
O401        O  0.25230984  0.99455313  0.75507187    -1.90500
Cd402      Cd  0.24599527  0.96874222  0.75109721     1.59900
O403        O  0.22241164  0.02844664  0.75805024    -0.80000
O404        O  0.26695582  0.95498152  0.73853795    -0.78600
C405        C  0.26768386  0.02610684  0.71977013     0.83900
C406        C  0.28910843  0.01007064  0.78631020     0.83600
O407        O  0.28768216  0.97666636  0.73777670    -0.77600
C408        C  0.23134417  0.96332214  0.78918867     0.84400
O409        O  0.27828475  0.01628306  0.72884654    -0.77700
C410        C  0.22499736  0.03177240  0.77473001     0.84500
C411        C  0.21464202  0.97857195  0.72513029     0.84800
O412        O  0.21724760  0.99554526  0.72574478    -0.80100
O413        O  0.70536765  0.73480952  0.47971242    -0.77600
C414        C  0.70943141  0.76657271  0.53054184     0.83400
O415        O  0.74437841  0.78595568  0.46781970    -0.78700
O416        O  0.76723012  0.77083743  0.52826199    -0.80200
O417        O  0.76197929  0.71219205  0.50966090    -0.80000
O418        O  0.72541115  0.71270998  0.48156643    -0.78600
Zn419      Zn  0.71809864  0.75614308  0.49175878     1.55700
O420        O  0.75743467  0.72901449  0.53401382    -0.80000
Cd421      Cd  0.74834618  0.72606802  0.48968278     1.59700
Cd422      Cd  0.75980387  0.76809091  0.48343712     1.59600
O423        O  0.76483653  0.72611687  0.46786725    -0.80000
O424        O  0.74317395  0.75114076  0.49681029    -1.90500
Cd425      Cd  0.74728836  0.75255589  0.52327418     1.59900
O426        O  0.77701161  0.75354288  0.46633598    -0.80000
O427        O  0.72486033  0.76217720  0.53663853    -0.78600
C428        C  0.72731633  0.78792825  0.46718634     0.83900
C429        C  0.70996688  0.71851652  0.47696589     0.83600
O430        O  0.70510571  0.76410925  0.51411878    -0.77600
C431        C  0.76397926  0.71514062  0.52644238     0.84400
O432        O  0.71668813  0.77754036  0.47561174    -0.77700
C433        C  0.77591698  0.73720082  0.46108376     0.84500
C434        C  0.77657703  0.78184604  0.51918248     0.84800
O435        O  0.77516807  0.78307532  0.50208501    -0.80100
O436        O  0.01524518  0.77117283  0.28992353    -0.77600
C437        C  0.96449675  0.73925773  0.28381741     0.83400
O438        O  0.02783472  0.72041245  0.25193232    -0.78700
O439        O  0.96945634  0.73705273  0.22494264    -0.80200
O440        O  0.98545492  0.79617858  0.23798280    -0.80000
O441        O  0.01866840  0.79236290  0.26918436    -0.78600
Zn442      Zn  0.00288322  0.75076219  0.27676247     1.55700
O443        O  0.96167337  0.77791025  0.23826422    -0.80000
Cd444      Cd  0.00642118  0.78082650  0.24715124     1.59700
Cd445      Cd  0.01376955  0.73879103  0.23561149     1.59600
O446        O  0.02447199  0.78172659  0.22688332    -0.80000
O447        O  0.99925662  0.75563102  0.25153008    -1.90500
Cd448      Cd  0.97300003  0.75379462  0.24641535     1.59900
O449        O  0.03185782  0.75365088  0.21939400    -0.80000
O450        O  0.95935052  0.74243067  0.26776667    -0.78600
C451        C  0.02724409  0.71867661  0.26901726     0.83900
C452        C  0.02113057  0.78648172  0.28504638     0.83600
O453        O  0.98028731  0.74316786  0.28925265    -0.77600
C454        C  0.96893465  0.79302013  0.23472065     0.84400
O455        O  0.01839969  0.72935330  0.27890524    -0.77700
C456        C  0.03334615  0.77067432  0.21745497     0.84500
C457        C  0.97900896  0.72640773  0.21566448     0.84800
O458        O  0.99592631  0.72457568  0.21837577    -0.80100
O459        O  0.54284325  0.02086064  0.98955843    -0.77600
C460        C  0.53405496  0.98351164  0.03451387     0.83400
O461        O  0.50140303  0.97441337  0.96811452    -0.78700
O462        O  0.47608007  0.98310478  0.02830782    -0.80200
O463        O  0.48732918  0.04415236  0.01940548    -0.80000
O464        O  0.52517465  0.04461205  0.99323284    -0.78600
Zn465      Zn  0.52802049  0.99930840  0.99687342     1.55700
O466        O  0.48709846  0.02296362  0.04048083    -0.80000
Cd467      Cd  0.50088124  0.03203352  0.99828021     1.59700
Cd468      Cd  0.48652983  0.99171530  0.98492061     1.59600
O469        O  0.48574777  0.03630943  0.97568433    -0.80000
O470        O  0.50328581  0.00559955  0.00160414    -1.90500
Cd471      Cd  0.49731471  0.00067171  0.02726178     1.59900
O472        O  0.47279266  0.01009373  0.96829973    -0.80000
O473        O  0.51888889  0.98870913  0.04052572    -0.78600
C474        C  0.51842482  0.97346960  0.96604654     0.83900
C475        C  0.54010031  0.03772100  0.98863109     0.83600
O476        O  0.53894447  0.98681261  0.01843809    -0.77600
C477        C  0.48291984  0.03861463  0.03497094     0.84400
O478        O  0.52929445  0.98247193  0.97584023    -0.77700
C479        C  0.47507445  0.02698754  0.96598639     0.84500
C480        C  0.46603671  0.97496610  0.01699996     0.84800
O481        O  0.46815039  0.97644990  0.00002001    -0.80100
C482        C  0.29795773  0.77705582  0.28889861     0.81100
N483        N  0.30385862  0.78310610  0.27276047    -0.77200
C484        C  0.29476234  0.79626180  0.26393818     0.83500
N485        N  0.27969524  0.80337064  0.27140825    -0.77100
C486        C  0.27379436  0.79741721  0.28761098     0.83600
N487        N  0.28300626  0.78429936  0.29622790    -0.78900
N488        N  0.38403034  0.67019807  0.36723948    -0.35700
N489        N  0.40419256  0.64148054  0.38464317    -0.56300
N490        N  0.38283705  0.61505339  0.36409056    -0.35700
N491        N  0.36496562  0.64387705  0.34458638    -0.56300
C492        C  0.39530022  0.68017552  0.37760297     0.27900
C493        C  0.37534948  0.68148635  0.35595183     0.27900
C494        C  0.39522670  0.60416338  0.37165847     0.27900
C495        C  0.37416969  0.60542093  0.35122636     0.27900
C496        C  0.41046878  0.65536531  0.39465565     0.36500
C497        C  0.41050155  0.62630276  0.39227303     0.36500
C498        C  0.35688375  0.65892070  0.33855792     0.36500
C499        C  0.35582296  0.62987033  0.33737568     0.36500
C500        C  0.39359706  0.69813188  0.37295051    -0.21000
C501        C  0.38108488  0.69895226  0.35930718    -0.21000
C502        C  0.39420029  0.58728798  0.36368273    -0.21000
C503        C  0.38090992  0.58807749  0.35084051    -0.21000
C504        C  0.42113486  0.64896592  0.40857644    -0.22100
C505        C  0.42118665  0.63055947  0.40704368    -0.22100
C506        C  0.34269300  0.65443929  0.32717825    -0.22100
C507        C  0.34195980  0.63604073  0.32651037    -0.22100
C508        C  0.40680499  0.67374057  0.39142924    -0.17400
C509        C  0.36208960  0.67668693  0.34298245    -0.17400
C510        C  0.36008060  0.61159797  0.34002377    -0.17400
C511        C  0.40703539  0.60866553  0.38598404    -0.17400
H512        H  0.40067519  0.70951939  0.37873399     0.15500
H513        H  0.37668747  0.71110105  0.35266881     0.15500
H514        H  0.40220348  0.57556533  0.36676956     0.15500
H515        H  0.37677485  0.57712261  0.34212247     0.15500
H516        H  0.42809232  0.65672562  0.41882126     0.13800
H517        H  0.42819374  0.62136645  0.41586833     0.13800
H518        H  0.33366771  0.66347232  0.32021877     0.13800
H519        H  0.33230709  0.62814952  0.31888451     0.13800
H520        H  0.38193953  0.65658510  0.36820954     0.27000
H521        H  0.37988192  0.62797969  0.36807969     0.27000
C522        C  0.45489130  0.95573536  0.26440171     0.81100
N523        N  0.44875965  0.97222310  0.26925508    -0.77200
C524        C  0.45589851  0.98100959  0.28369678     0.83500
N525        N  0.46937014  0.97319410  0.29332282    -0.77100
C526        C  0.47557503  0.95666121  0.28867420     0.83600
N527        N  0.46821988  0.94797727  0.27424849    -0.78900
N528        N  0.58454672  0.88367489  0.37659999    -0.35700
N529        N  0.61335525  0.86562459  0.39583734    -0.56300
N530        N  0.64023815  0.88697560  0.37645873    -0.35700
N531        N  0.61100140  0.90751000  0.35967610    -0.56300
C532        C  0.57483405  0.87378817  0.38830959     0.27900
C533        C  0.57354460  0.89635267  0.36970483     0.27900
C534        C  0.65061797  0.87977453  0.38961520     0.27900
C535        C  0.64944163  0.90095594  0.36933616     0.27900
C536        C  0.59957455  0.85441356  0.39978384     0.36500
C537        C  0.62859452  0.85710152  0.40082234     0.36500
C538        C  0.59595506  0.91183144  0.35030732     0.36500
C539        C  0.62510253  0.91298954  0.34963928     0.36500
C540        C  0.55731069  0.88009162  0.38866410    -0.21000
C541        C  0.55651402  0.89438240  0.37697616    -0.21000
C542        C  0.66676497  0.88913987  0.39063993    -0.21000
C543        C  0.66604487  0.90244365  0.37783777    -0.21000
C544        C  0.60607117  0.83874285  0.40738084    -0.22100
C545        C  0.62443848  0.84038737  0.40792379    -0.22100
C546        C  0.60048327  0.92018583  0.33436279    -0.22100
C547        C  0.61891539  0.92070319  0.33381686    -0.22100
C548        C  0.58116717  0.85868251  0.39791843    -0.17400
C549        C  0.57813973  0.90876642  0.35610405    -0.17400
C550        C  0.64340645  0.91203815  0.35503656    -0.17400
C551        C  0.64606473  0.86473614  0.40039163    -0.17400
H552        H  0.54619375  0.87484254  0.39638689     0.15500
H553        H  0.54465349  0.90222810  0.37395274     0.15500
H554        H  0.67791316  0.88677163  0.39973298     0.15500
H555        H  0.67650337  0.91224107  0.37528825     0.15500
H556        H  0.59838874  0.82737205  0.41218827     0.13800
H557        H  0.63367492  0.83041629  0.41306249     0.13800
H558        H  0.59144337  0.92508645  0.32403876     0.13800
H559        H  0.62680884  0.92600461  0.32287233     0.13800
H560        H  0.59766751  0.88125686  0.37272202     0.27000
H561        H  0.62783810  0.88220426  0.37205019     0.27000
N562        N  0.37395462  0.87425565  0.15514741    -0.35700
N563        N  0.39031463  0.89693066  0.12806942    -0.56300
N564        N  0.37252275  0.87566788  0.09946598    -0.35700
N565        N  0.35350456  0.85527536  0.12716654    -0.56300
C566        C  0.38081475  0.88751873  0.16568498     0.27900
C567        C  0.36214688  0.86488114  0.16522587     0.27900
C568        C  0.37905548  0.88975825  0.09011949     0.27900
C569        C  0.35903229  0.86819038  0.08969964     0.27900
C570        C  0.39972606  0.90251683  0.14271397     0.36500
C571        C  0.39949229  0.90271219  0.11356488     0.36500
C572        C  0.34958838  0.84471506  0.14140620     0.36500
C573        C  0.34794250  0.84621358  0.11233646     0.36500
C574        C  0.37335324  0.88646200  0.18268292    -0.21000
C575        C  0.36162450  0.87213956  0.18241356    -0.21000
C576        C  0.36975782  0.89112329  0.07394604    -0.21000
C577        C  0.35709601  0.87759287  0.07371526    -0.21000
C578        C  0.41488131  0.91196660  0.13752248    -0.22100
C579        C  0.41484730  0.91192928  0.11906122    -0.22100
C580        C  0.34135784  0.82898159  0.13564414    -0.22100
C581        C  0.34039833  0.82987291  0.11724681    -0.22100
C582        C  0.39436617  0.89988183  0.16069856    -0.17400
C583        C  0.35245943  0.84945796  0.15960627    -0.17400
C584        C  0.34863041  0.85293926  0.09453407    -0.17400
C585        C  0.39330281  0.90132322  0.09556059    -0.17400
H586        H  0.37618679  0.89501274  0.19416273     0.15500
H587        H  0.35364284  0.86757149  0.19363518     0.15500
H588        H  0.37167070  0.90102727  0.06350283     0.15500
H589        H  0.34738509  0.87517237  0.06307623     0.15500
H590        H  0.42491708  0.91819841  0.14613639     0.13800
H591        H  0.42489383  0.91817209  0.11064910     0.13800
H592        H  0.33652358  0.81801100  0.14384305     0.13800
H593        H  0.33480758  0.81958842  0.10852315     0.13800
H594        H  0.37782508  0.87107303  0.14218494     0.27000
H595        H  0.37769454  0.87084349  0.11204797     0.27000
C596        C  0.28103335  0.95870420  0.45336777     0.81100
N597        N  0.28874451  0.95198354  0.46855442    -0.77200
C598        C  0.30402805  0.95952521  0.47541416     0.83500
N599        N  0.31156091  0.97382340  0.46696676    -0.77100
C600        C  0.30403986  0.98061107  0.45177005     0.83600
N601        N  0.28877377  0.97299195  0.44503217    -0.78900
C602        C  0.46413616  0.79110228  0.48286669     0.81100
N603        N  0.47959576  0.79906906  0.47722200    -0.77200
C604        C  0.48821788  0.79288698  0.46241385     0.83500
N605        N  0.48130813  0.77861913  0.45326627    -0.77100
C606        C  0.46589538  0.77055573  0.45869012     0.83600
N607        N  0.45725805  0.77690305  0.47346831    -0.78900
N608        N  0.38065582  0.87653893  0.58522021    -0.35700
N609        N  0.40070267  0.85866017  0.61375092    -0.56300
N610        N  0.38023246  0.87869922  0.64050849    -0.35700
N611        N  0.36204261  0.89844772  0.61196580    -0.56300
C612        C  0.39327173  0.86802653  0.57534124     0.27900
C613        C  0.37250028  0.88866076  0.57441107     0.27900
C614        C  0.39311750  0.87133384  0.65100405     0.27900
C615        C  0.37273134  0.89220059  0.65003717     0.27900
C616        C  0.40720777  0.84936004  0.59959640     0.36500
C617        C  0.40672069  0.85032751  0.62872033     0.36500
C618        C  0.35266070  0.90327118  0.59714254     0.36500
C619        C  0.35270955  0.90461038  0.62622922     0.36500
C620        C  0.39290561  0.87463962  0.55792309    -0.21000
C621        C  0.37981056  0.88761641  0.55733189    -0.21000
C622        C  0.39369078  0.88015485  0.66746600    -0.21000
C623        C  0.38084721  0.89335814  0.66683361    -0.21000
C624        C  0.41767805  0.83519554  0.60561239    -0.22100
C625        C  0.41731968  0.83577173  0.62406690    -0.22100
C626        C  0.33747425  0.91282718  0.60201388    -0.22100
C627        C  0.33747550  0.91362057  0.62044728    -0.22100
C628        C  0.40470335  0.85404932  0.58134634    -0.17400
C629        C  0.35804321  0.89998715  0.57925307    -0.17400
C630        C  0.35814703  0.90289703  0.64436042    -0.17400
C631        C  0.40384705  0.85639386  0.64648899    -0.17400
H632        H  0.40114287  0.87049555  0.54672200     0.15500
H633        H  0.37606399  0.89531939  0.54558758     0.15500
H634        H  0.40243217  0.87736431  0.67879789     0.15500
H635        H  0.37777931  0.90270270  0.67755469     0.15500
H636        H  0.42498615  0.82557664  0.59755512     0.13800
H637        H  0.42434761  0.82672330  0.63302425     0.13800
H638        H  0.32745209  0.91867510  0.59321654     0.13800
H639        H  0.32743485  0.92013834  0.62864168     0.13800
H640        H  0.37717011  0.87365809  0.59833829     0.27000
H641        H  0.37605342  0.87405900  0.62800523     0.27000
N642        N  0.37794210  0.08859217  0.36248407    -0.35700
N643        N  0.39925428  0.11798474  0.34808225    -0.56300
N644        N  0.37572740  0.14429606  0.36613669    -0.35700
N645        N  0.35655301  0.11453767  0.38282161    -0.56300
C646        C  0.39148680  0.07928848  0.35480829     0.27900
C647        C  0.36969114  0.07747679  0.37422720     0.27900
C648        C  0.38949303  0.15503809  0.36101858     0.27900
C649        C  0.36639213  0.15324578  0.37894223     0.27900
C650        C  0.40606905  0.10436167  0.33813154     0.36500
C651        C  0.40585836  0.13339990  0.34110629     0.36500
C652        C  0.34741313  0.09923439  0.38648807     0.36500
C653        C  0.34585988  0.12831646  0.38783779     0.36500
C654        C  0.39163514  0.06191097  0.36150172    -0.21000
C655        C  0.37794952  0.06079200  0.37380639    -0.21000
C656        C  0.38864000  0.17117214  0.37037033    -0.21000
C657        C  0.37415256  0.17002410  0.38168670    -0.21000
C658        C  0.41719124  0.11113077  0.32490510    -0.22100
C659        C  0.41705121  0.12949182  0.32676571    -0.22100
C660        C  0.33090810  0.10330009  0.39396377    -0.22100
C661        C  0.32982126  0.12168091  0.39458671    -0.22100
C662        C  0.40332014  0.08585553  0.34150379    -0.17400
C663        C  0.35429444  0.08166214  0.38450682    -0.17400
C664        C  0.35111040  0.14665755  0.38822264    -0.17400
C665        C  0.40268046  0.15090683  0.34796656    -0.17400
H666        H  0.40065802  0.05112209  0.35791818     0.15500
H667        H  0.37437829  0.04893889  0.38139870     0.15500
H668        H  0.39770268  0.18253751  0.36940043     0.15500
H669        H  0.37009525  0.18033330  0.39108287     0.15500
H670        H  0.42474629  0.10361884  0.31504291     0.13800
H671        H  0.42437017  0.13887825  0.31845456     0.13800
H672        H  0.32073969  0.09401961  0.39863376     0.13800
H673        H  0.31860214  0.12929202  0.39975006     0.13800
H674        H  0.37398125  0.10151292  0.35919791     0.27000
H675        H  0.37260362  0.13176898  0.36078209     0.27000
N676        N  0.17116095  0.87070513  0.38264986    -0.35700
N677        N  0.14363352  0.85375531  0.36005751    -0.56300
N678        N  0.11583787  0.87442757  0.37876191    -0.35700
N679        N  0.14342551  0.89273073  0.40014187    -0.56300
C680        C  0.18164508  0.86223331  0.37044573     0.27900
C681        C  0.18158840  0.88298731  0.39130337     0.27900
C682        C  0.10537819  0.86567244  0.36663397     0.27900
C683        C  0.10526076  0.88607257  0.38779274     0.27900
C684        C  0.15801888  0.84466156  0.35386304     0.36500
C685        C  0.12898791  0.84653331  0.35194271     0.36500
C686        C  0.15795015  0.89874966  0.40940419     0.36500
C687        C  0.12878341  0.90023620  0.40777856     0.36500
C688        C  0.19904311  0.86889873  0.37169978    -0.21000
C689        C  0.19901149  0.88195634  0.38479612    -0.21000
C690        C  0.08781331  0.87172393  0.36808478    -0.21000
C691        C  0.08772900  0.88452338  0.38141610    -0.21000
C692        C  0.15250728  0.83165692  0.34161014    -0.22100
C693        C  0.13414263  0.83285639  0.34037458    -0.22100
C694        C  0.15252159  0.91029381  0.42297914    -0.22100
C695        C  0.13407684  0.91124999  0.42193758    -0.22100
C696        C  0.17614305  0.84859901  0.35820727    -0.17400
C697        C  0.17608717  0.89493199  0.40513181    -0.17400
C698        C  0.11075862  0.89787659  0.40181382    -0.17400
C699        C  0.11102927  0.85224233  0.35437806    -0.17400
H700        H  0.21056820  0.86494372  0.36382876     0.15500
H701        H  0.21054868  0.88990194  0.38891761     0.15500
H702        H  0.07619037  0.86737052  0.36036801     0.15500
H703        H  0.07600618  0.89180431  0.38589952     0.15500
H704        H  0.16085466  0.82243369  0.33412909     0.13800
H705        H  0.12558333  0.82463908  0.33183591     0.13800
H706        H  0.16098173  0.91751346  0.43246683     0.13800
H707        H  0.12556426  0.91929262  0.43051080     0.13800
H708        H  0.15783856  0.86782700  0.38540126     0.27000
H709        H  0.12934106  0.87232657  0.38091945     0.27000
O710        O  0.70988559  0.02425579  0.25470172    -0.77600
C711        C  0.71690433  0.98472466  0.20923470     0.83400
O712        O  0.74483358  0.97294708  0.27545041    -0.78700
O713        O  0.77560101  0.98252342  0.21705984    -0.80200
O714        O  0.76284321  0.04356312  0.22532093    -0.80000
O715        O  0.73240006  0.04370047  0.25847694    -0.78600
Zn716      Zn  0.72246837  0.00156655  0.24629545     1.55700
O717        O  0.76327036  0.02274833  0.20379031    -0.80000
Cd718      Cd  0.75391478  0.03021907  0.24773674     1.59700
Cd719      Cd  0.76235214  0.98834335  0.25971077     1.59600
O720        O  0.77440779  0.03152057  0.26602154    -0.80000
O721        O  0.74811099  0.00470516  0.24304035    -1.90500
Cd722      Cd  0.75447165  0.00001341  0.21753682     1.59900
O723        O  0.77900418  0.00390387  0.27675880    -0.80000
O724        O  0.73313603  0.98754826  0.20452618    -0.78600
C725        C  0.72774895  0.97410178  0.27657167     0.83900
C726        C  0.71592667  0.03938769  0.26017597     0.83600
O727        O  0.71085932  0.99022109  0.22428108    -0.77600
C728        C  0.76626694  0.03873741  0.20929206     0.84400
O729        O  0.71867006  0.98445165  0.26645844    -0.77700
C730        C  0.78249378  0.02073536  0.27652718     0.84500
C731        C  0.78330415  0.97201098  0.22812205     0.84800
O732        O  0.77913644  0.97140964  0.24473943    -0.80100
O733        O  0.79235276  0.24515424  0.98655754    -0.77600
C734        C  0.78821592  0.29631512  0.01689423     0.83400
O735        O  0.74879233  0.23101848  0.02867656    -0.78700
O736        O  0.73142533  0.29181261  0.02222232    -0.80200
O737        O  0.74377308  0.28303142  0.95809017    -0.80000
O738        O  0.77754066  0.25127167  0.96124987    -0.78600
Zn739      Zn  0.77843502  0.25805943  0.00573940     1.55700
O740        O  0.73940934  0.30251516  0.98044298    -0.80000
Cd741      Cd  0.75362964  0.26064518  0.97138014     1.59700
Cd742      Cd  0.73609247  0.24838289  0.01016673     1.59600
O743        O  0.73604964  0.24014853  0.96596596    -0.80000
O744        O  0.75464215  0.26394891  0.99777013    -1.90500
Cd745      Cd  0.75036640  0.28978543  0.00260289     1.59900
O746        O  0.72210223  0.23269769  0.99139087    -0.80000
O747        O  0.77319594  0.30286392  0.01192433    -0.78600
C748        C  0.76535666  0.23089543  0.03335729     0.83900
C749        C  0.79050007  0.24378936  0.96959438     0.83600
O750        O  0.79181723  0.27971029  0.01492628    -0.77600
C751        C  0.73778529  0.29794323  0.96398884     0.84400
O752        O  0.77688984  0.24103492  0.02595150    -0.77700
C753        C  0.72465733  0.23078078  0.97454935     0.84500
C754        C  0.71915958  0.28148236  0.02814094     0.84800
O755        O  0.71806854  0.26486853  0.02389521    -0.80100
C756        C  0.29326717  0.27028682  0.78830602     0.81100
N757        N  0.30066235  0.27800812  0.77359272    -0.77200
C758        C  0.29270416  0.29232079  0.76562844     0.83500
N759        N  0.27717653  0.29890139  0.77246158    -0.77100
C760        C  0.26973929  0.29141135  0.78733505     0.83600
N761        N  0.27787263  0.27712406  0.79526125    -0.78900
C762        C  0.47752081  0.29749866  0.95374852     0.81100
N763        N  0.47054544  0.28272733  0.94537627    -0.77200
C764        C  0.45582009  0.27432759  0.95211326     0.83500
N765        N  0.44807224  0.28082753  0.96725914    -0.77100
C766        C  0.45493904  0.29552070  0.97573242     0.83600
N767        N  0.46968707  0.30381172  0.96893665    -0.78900
C768        C  0.46022681  0.46592962  0.76470472     0.81100
N769        N  0.47524860  0.45869793  0.77218832    -0.77200
C770        C  0.48292064  0.46622196  0.78704091     0.83500
N771        N  0.47537437  0.48104967  0.79451988    -0.77100
C772        C  0.46026819  0.48837470  0.78726617     0.83600
N773        N  0.45273314  0.48073635  0.77234980    -0.78900
C774        C  0.27104027  0.45584048  0.95326171     0.81100
N775        N  0.27921863  0.47051029  0.94621466    -0.77200
C776        C  0.29398081  0.47782441  0.95423299     0.83500
N777        N  0.30069865  0.47026386  0.96946123    -0.77100
C778        C  0.29255513  0.45563009  0.97677270     0.83600
N779        N  0.27769980  0.44848419  0.96863661    -0.78900
N780        N  0.38310516  0.58700686  0.88136548    -0.35700
N781        N  0.40329860  0.61652093  0.86615441    -0.56300
N782        N  0.38095742  0.64201826  0.88626434    -0.35700
N783        N  0.36250882  0.61230497  0.90332799    -0.56300
C784        C  0.39694270  0.57817777  0.87362010     0.27900
C785        C  0.37580857  0.57588044  0.89370072     0.27900
C786        C  0.39438638  0.65283166  0.88053507     0.27900
C787        C  0.37253777  0.65066388  0.89984748     0.27900
C788        C  0.40906406  0.60314110  0.85532060     0.36500
C789        C  0.40831676  0.63205431  0.85830800     0.36500
C790        C  0.35316544  0.59696263  0.90617012     0.36500
C791        C  0.35179793  0.62599563  0.90853197     0.36500
C792        C  0.39842073  0.56119415  0.88103408    -0.21000
C793        C  0.38508736  0.55973266  0.89371029    -0.21000
C794        C  0.39449136  0.66860402  0.89050453    -0.21000
C795        C  0.38077592  0.66719395  0.90277603    -0.21000
C796        C  0.41795470  0.61017067  0.84061397    -0.22100
C797        C  0.41749248  0.62852736  0.84250629    -0.22100
C798        C  0.33648496  0.60088639  0.91334997    -0.22100
C799        C  0.33552311  0.61927096  0.91461765    -0.22100
C800        C  0.40748848  0.58469712  0.85929162    -0.17400
C801        C  0.36018824  0.57949803  0.90384797    -0.17400
C802        C  0.35710019  0.64431276  0.90898096    -0.17400
C803        C  0.40577308  0.64929160  0.86582365    -0.17400
H804        H  0.40799234  0.55085598  0.87754783     0.15500
H805        H  0.38238202  0.54795609  0.90174517     0.15500
H806        H  0.40347647  0.67997664  0.88903599     0.15500
H807        H  0.37725940  0.67725902  0.91266156     0.15500
H808        H  0.42430229  0.60284209  0.82979996     0.13800
H809        H  0.42339328  0.63816121  0.83338487     0.13800
H810        H  0.32609400  0.59152351  0.91733043     0.13800
H811        H  0.32411826  0.62676046  0.91952346     0.13800
H812        H  0.37812115  0.59946218  0.87758378     0.27000
H813        H  0.37706771  0.62991294  0.88042903     0.27000
N814        N  0.58362866  0.37478658  0.86790588    -0.35700
N815        N  0.61094899  0.39637611  0.84975809    -0.56300
N816        N  0.63903341  0.37958826  0.87127784    -0.35700
N817        N  0.61137545  0.36012303  0.89150433    -0.56300
C818        C  0.57305546  0.38621071  0.85851892     0.27900
C819        C  0.57327311  0.36696021  0.88056372     0.27900
C820        C  0.64846676  0.39311100  0.86358459     0.27900
C821        C  0.64872251  0.37377523  0.88554595     0.27900
C822        C  0.59665082  0.39960292  0.83894659     0.36500
C823        C  0.62560717  0.40233127  0.84088736     0.36500
C824        C  0.59720131  0.35030315  0.89726025     0.36500
C825        C  0.62622931  0.35281852  0.89903747     0.36500
C826        C  0.55564926  0.38538743  0.86507833    -0.21000
C827        C  0.55577832  0.37321474  0.87895958    -0.21000
C828        C  0.66444110  0.39575121  0.87296348    -0.21000
C829        C  0.66465028  0.38348947  0.88674814    -0.21000
C830        C  0.60222890  0.40774080  0.82320254    -0.22100
C831        C  0.62057498  0.40933204  0.82436645    -0.22100
C832        C  0.60305582  0.33684219  0.90869641    -0.22100
C833        C  0.62144334  0.33842801  0.90981495    -0.22100
C834        C  0.57852504  0.39675169  0.84371645    -0.17400
C835        C  0.57897714  0.35386451  0.89310035    -0.17400
C836        C  0.64392417  0.35959245  0.89721277    -0.17400
C837        C  0.64326600  0.40279727  0.84806235    -0.17400
H838        H  0.54401948  0.39271061  0.86031500     0.15500
H839        H  0.54428427  0.36943504  0.88698081     0.15500
H840        H  0.67486525  0.40553561  0.87023154     0.15500
H841        H  0.67527273  0.38201681  0.89664613     0.15500
H842        H  0.59394727  0.41221618  0.81208590     0.13800
H843        H  0.62919710  0.41514472  0.81425099     0.13800
H844        H  0.59491554  0.32703434  0.91567245     0.13800
H845        H  0.63025451  0.33008339  0.91783659     0.13800
H846        H  0.59697030  0.37186919  0.86526188     0.27000
H847        H  0.62705713  0.37404669  0.86660288     0.27000
N848        N  0.38442973  0.37172093  0.66292610    -0.35700
N849        N  0.39902155  0.39361782  0.63409621    -0.56300
N850        N  0.37859783  0.37215103  0.60768778    -0.35700
N851        N  0.36182724  0.35240261  0.63668352    -0.56300
C852        C  0.39233219  0.38514673  0.67248733     0.27900
C853        C  0.37256589  0.36347965  0.67391925     0.27900
C854        C  0.38468447  0.38566640  0.59725564     0.27900
C855        C  0.36509719  0.36384968  0.59856418     0.27900
C856        C  0.40940931  0.39975459  0.64780760     0.36500
C857        C  0.40655108  0.39973320  0.61880092     0.36500
C858        C  0.35833717  0.34267228  0.65158248     0.36500
C859        C  0.35560998  0.34266554  0.62254455     0.36500
C860        C  0.38565434  0.38521513  0.68984184    -0.21000
C861        C  0.37314540  0.37160131  0.69072823    -0.21000
C862        C  0.37507502  0.38586036  0.58120260    -0.21000
C863        C  0.36263473  0.37217871  0.58208341    -0.21000
C864        C  0.42342064  0.41008800  0.64123295    -0.22100
C865        C  0.42162342  0.41006914  0.62284312    -0.22100
C866        C  0.34980561  0.32672514  0.64691956    -0.22100
C867        C  0.34817139  0.32667121  0.62853415    -0.22100
C868        C  0.40582154  0.39697781  0.66620923    -0.17400
C869        C  0.36161749  0.34850274  0.66941061    -0.17400
C870        C  0.35542087  0.34857096  0.60445944    -0.17400
C871        C  0.39943474  0.39702717  0.60132374    -0.17400
H872        H  0.38929909  0.39424016  0.70072012     0.15500
H873        H  0.36530214  0.36814964  0.70243186     0.15500
H874        H  0.37684334  0.39487240  0.56996279     0.15500
H875        H  0.35295591  0.36873023  0.57169534     0.15500
H876        H  0.43375182  0.41704192  0.64889104     0.13800
H877        H  0.43028159  0.41708416  0.61354248     0.13800
H878        H  0.34517827  0.31624600  0.65584299     0.13800
H879        H  0.34209373  0.31608431  0.62052250     0.13800
H880        H  0.38754121  0.36785175  0.64990840     0.27000
H881        H  0.38411822  0.36818827  0.61987106     0.27000
N882        N  0.37548262  0.37622038  0.08410379    -0.35700
N883        N  0.35332473  0.39314841  0.11200479    -0.56300
N884        N  0.37254975  0.37232621  0.13930820    -0.35700
N885        N  0.39237250  0.35323840  0.11100121    -0.56300
C886        C  0.36472421  0.38641541  0.07357552     0.27900
C887        C  0.38551649  0.36571190  0.07320168     0.27900
C888        C  0.35989690  0.38018667  0.14966913     0.27900
C889        C  0.37996922  0.35889624  0.14903665     0.27900
C890        C  0.34781260  0.40297816  0.09773531     0.36500
C891        C  0.34632928  0.40092414  0.12686089     0.36500
C892        C  0.40224676  0.34822619  0.09666595     0.36500
C893        C  0.40004498  0.34555413  0.12553847     0.36500
C894        C  0.36804203  0.38230896  0.05566828    -0.21000
C895        C  0.38118958  0.36939285  0.05544210    -0.21000
C896        C  0.35961148  0.37192271  0.16635524    -0.21000
C897        C  0.37217986  0.35848168  0.16593045    -0.21000
C898        C  0.33699822  0.41694823  0.10357905    -0.22100
C899        C  0.33607051  0.41565181  0.12198543    -0.22100
C900        C  0.41610691  0.33704518  0.10207945    -0.22100
C901        C  0.41478256  0.33543420  0.12035969    -0.22100
C902        C  0.35237189  0.39969385  0.07949701    -0.17400
C903        C  0.39883941  0.35325272  0.07867887    -0.17400
C904        C  0.39382266  0.34717735  0.14339111    -0.17400
C905        C  0.34870070  0.39474706  0.14473409    -0.17400
H906        H  0.36171407  0.38802863  0.04387894     0.15500
H907        H  0.38692553  0.36344321  0.04349754     0.15500
H908        H  0.35108212  0.37508637  0.17765597     0.15500
H909        H  0.37512866  0.34935811  0.17684838     0.15500
H910        H  0.33059590  0.42716226  0.09546004     0.13800
H911        H  0.32876652  0.42460742  0.13077598     0.13800
H912        H  0.42623462  0.33081995  0.09376307     0.13800
H913        H  0.42380524  0.32780905  0.12884652     0.13800
H914        H  0.37634339  0.37686514  0.09785664     0.27000
H915        H  0.37637173  0.37631254  0.12665294     0.27000
N916        N  0.37129715  0.16552553  0.87598220    -0.35700
N917        N  0.35552805  0.13822008  0.85224177    -0.56300
N918        N  0.37485992  0.11043334  0.87226866    -0.35700
N919        N  0.39280031  0.13802377  0.89389421    -0.56300
C920        C  0.36266484  0.17608269  0.86396848     0.27900
C921        C  0.38302870  0.17606447  0.88521354     0.27900
C922        C  0.36841766  0.10071533  0.85823254     0.27900
C923        C  0.38773313  0.10049117  0.88040218     0.27900
C924        C  0.34521024  0.15236182  0.84750761     0.36500
C925        C  0.34757847  0.12346438  0.84507657     0.36500
C926        C  0.39755886  0.15237400  0.90407587     0.36500
C927        C  0.39892205  0.12331031  0.90255270     0.36500
C928        C  0.36875237  0.19364188  0.86579592    -0.21000
C929        C  0.38157868  0.19363558  0.87918113    -0.21000
C930        C  0.37715773  0.08429229  0.85755718    -0.21000
C931        C  0.38934342  0.08415729  0.87152230    -0.21000
C932        C  0.33077594  0.14659408  0.83707059    -0.22100
C933        C  0.33229198  0.12827219  0.83551013    -0.22100
C934        C  0.40695545  0.14678549  0.91918352    -0.22100
C935        C  0.40768651  0.12837705  0.91830664    -0.22100
C936        C  0.34898022  0.17048806  0.85185096    -0.17400
C937        C  0.39444771  0.17050170  0.89944350    -0.17400
C938        C  0.39770350  0.10548224  0.89592246    -0.17400
C939        C  0.35421848  0.10577850  0.84658654    -0.17400
H940        H  0.36439355  0.20529001  0.85828556     0.15500
H941        H  0.38888987  0.20532010  0.88398747     0.15500
H942        H  0.37495162  0.07347624  0.84801997     0.15500
H943        H  0.39837840  0.07324781  0.87473825     0.15500
H944        H  0.32023876  0.15473220  0.83121165     0.13800
H945        H  0.32315231  0.11949048  0.82823069     0.13800
H946        H  0.41273772  0.15510009  0.92971191     0.13800
H947        H  0.41412242  0.11976028  0.92809027     0.13800
H948        H  0.36868275  0.15208835  0.87829767     0.27000
H949        H  0.37004700  0.12271299  0.87663834     0.27000
N950        N  0.16444423  0.36900732  0.87377534    -0.35700
N951        N  0.13657175  0.35192479  0.85174070    -0.56300
N952        N  0.10911432  0.37207822  0.87140341    -0.35700
N953        N  0.13712312  0.39082917  0.89173969    -0.56300
C954        C  0.17487116  0.35951782  0.86235428     0.27900
C955        C  0.17523874  0.38061086  0.88286362     0.27900
C956        C  0.09891597  0.36480476  0.85814477     0.27900
C957        C  0.09913937  0.38481457  0.87960463     0.27900
C958        C  0.15074793  0.34208560  0.84620467     0.36500
C959        C  0.12170901  0.34420365  0.84452900     0.36500
C960        C  0.15176411  0.39637725  0.90112395     0.36500
C961        C  0.12259865  0.39732282  0.90042355     0.36500
C962        C  0.19263671  0.36494284  0.86445320    -0.21000
C963        C  0.19286713  0.37822755  0.87734442    -0.21000
C964        C  0.08213493  0.37290443  0.85801648    -0.21000
C965        C  0.08224103  0.38544553  0.87159979    -0.21000
C966        C  0.14487388  0.32819717  0.83513926    -0.22100
C967        C  0.12648414  0.32953176  0.83408595    -0.22100
C968        C  0.14651051  0.40678698  0.91564567    -0.22100
C969        C  0.12806449  0.40734534  0.91522966    -0.22100
C970        C  0.16897865  0.34576373  0.85043288    -0.17400
C971        C  0.16984625  0.39278288  0.89650690    -0.17400
C972        C  0.10452412  0.39518073  0.89470114    -0.17400
C973        C  0.10394001  0.35052923  0.84665920    -0.17400
H974        H  0.20428253  0.35984833  0.85746259     0.15500
H975        H  0.20474453  0.38521720  0.88218266     0.15500
H976        H  0.07087605  0.36997635  0.84917036     0.15500
H977        H  0.07104874  0.39394974  0.87516501     0.15500
H978        H  0.15298707  0.31816652  0.82848159     0.13800
H979        H  0.11764813  0.32071850  0.82647517     0.13800
H980        H  0.15506574  0.41337090  0.92549934     0.13800
H981        H  0.11967528  0.41455708  0.92461829     0.13800
H982        H  0.15085579  0.36715849  0.87577388     0.27000
H983        H  0.12176414  0.36784475  0.87531268     0.27000
C984        C  0.70732084  0.72471396  0.20293730     0.81100
N985        N  0.69860926  0.71649356  0.21661007    -0.77200
C986        C  0.70583473  0.70204462  0.22493736     0.83500
N987        N  0.72190343  0.69557826  0.21938320    -0.77100
C988        C  0.73077619  0.70348472  0.20556625     0.83600
N989        N  0.72346462  0.71815575  0.19736841    -0.78900
N990        N  0.62499169  0.61907387  0.33046872    -0.35700
N991        N  0.64692227  0.63623490  0.35820590    -0.56300
N992        N  0.62869315  0.61472838  0.38554939    -0.35700
N993        N  0.60896814  0.59529013  0.35754465    -0.56300
C994        C  0.63726848  0.62755775  0.32015002     0.27900
C995        C  0.61634699  0.60702723  0.31986818     0.27900
C996        C  0.64140688  0.62303454  0.39572607     0.27900
C997        C  0.62170693  0.60113298  0.39539264     0.27900
C998        C  0.65187949  0.64629246  0.34397387     0.36500
C999        C  0.65284830  0.64499976  0.37303234     0.36500
C1000       C  0.59833067  0.59127819  0.34324621     0.36500
C1001       C  0.60070384  0.58845982  0.37218925     0.36500
C1002       C  0.63623227  0.62093459  0.30270468    -0.21000
C1003       C  0.62294957  0.60805748  0.30250870    -0.21000
C1004       C  0.64238559  0.61471057  0.41236257    -0.21000
C1005       C  0.63011620  0.60082546  0.41209018    -0.21000
C1006       C  0.66120668  0.66141606  0.34972665    -0.22100
C1007       C  0.66182112  0.66061397  0.36814024    -0.22100
C1008       C  0.58341608  0.58161563  0.34874887    -0.22100
C1009       C  0.58486688  0.57989426  0.36705273    -0.22100
C1010       C  0.64891992  0.64155716  0.32582308    -0.17400
C1011       C  0.60208540  0.59572174  0.32519967    -0.17400
C1012       C  0.60731443  0.58963279  0.39010427    -0.17400
C1013       C  0.65133515  0.63855967  0.39083093    -0.17400
H1014       H  0.64415718  0.62498639  0.29124915     0.15500
H1015       H  0.61868295  0.60028138  0.29090896     0.15500
H1016       H  0.65090325  0.61831333  0.42365933     0.15500
H1017       H  0.62755523  0.59170123  0.42308297     0.15500
H1018       H  0.66702054  0.67188866  0.34151142     0.13800
H1019       H  0.66838081  0.67031318  0.37687088     0.13800
H1020       H  0.57251579  0.57649048  0.34046559     0.13800
H1021       H  0.57512242  0.57336858  0.37558963     0.13800
H1022       H  0.62194720  0.62193054  0.34373728     0.27000
H1023       H  0.62428345  0.61884467  0.37300516     0.27000
C1024       C  0.72464702  0.55217094  0.04620889     0.81100
N1025       N  0.71715665  0.53758243  0.05429923    -0.77200
C1026       C  0.70207484  0.52984359  0.04718500     0.83500
N1027       N  0.69460439  0.53678748  0.03199634    -0.77100
C1028       C  0.70197463  0.55136193  0.02397173     0.83600
N1029       N  0.71697498  0.55894642  0.03112618    -0.78900
C1030       C  0.51470196  0.70772750  0.03695943     0.81100
N1031       N  0.52253689  0.72174607  0.04582239    -0.77200
C1032       C  0.53768111  0.72955080  0.03931505     0.83500
N1033       N  0.54508131  0.72317171  0.02391286    -0.77100
C1034       C  0.53752876  0.70899382  0.01510569     0.83600
N1035       N  0.52232937  0.70133404  0.02169301    -0.78900
C1036       C  0.53351220  0.52117334  0.20104838     0.81100
N1037       N  0.54147908  0.52679531  0.21652663    -0.77200
C1038       C  0.53619454  0.54227489  0.22458616     0.83500
N1039       N  0.52267226  0.55211475  0.21713000    -0.77100
C1040       C  0.51461706  0.54652955  0.20160797     0.83600
N1041       N  0.52019233  0.53113552  0.19361523    -0.78900
N1042       N  0.40861966  0.62956890  0.11663017    -0.35700
N1043       N  0.37895818  0.64824495  0.09978688    -0.56300
N1044       N  0.35360911  0.62409739  0.11802646    -0.35700
N1045       N  0.38346241  0.60741933  0.13680756    -0.56300
C1046       C  0.41738256  0.64404165  0.11000327     0.27900
C1047       C  0.41978096  0.62148737  0.12848480     0.27900
C1048       C  0.34274441  0.63706376  0.11151408     0.27900
C1049       C  0.34513575  0.61656047  0.13222531     0.27900
C1050       C  0.39267654  0.65590986  0.09072645     0.36500
C1051       C  0.36377923  0.65215939  0.09057275     0.36500
C1052       C  0.39873742  0.59791429  0.13905967     0.36500
C1053       C  0.36977517  0.59631954  0.14117378     0.36500
C1054       C  0.43442071  0.64506453  0.11771331    -0.21000
C1055       C  0.43590737  0.63084516  0.12940562    -0.21000
C1056       C  0.32710897  0.63773826  0.12152043    -0.21000
C1057       C  0.32873622  0.62498410  0.13478793    -0.21000
C1058       C  0.38613864  0.66511177  0.07590802    -0.22100
C1059       C  0.36781001  0.66264688  0.07575040    -0.22100
C1060       C  0.39478206  0.58069065  0.14487063    -0.22100
C1061       C  0.37637689  0.57964187  0.14611151    -0.22100
C1062       C  0.41089224  0.65539365  0.09618444    -0.17400
C1063       C  0.41617697  0.60517015  0.13740149    -0.17400
C1064       C  0.35163298  0.60174091  0.14220838    -0.17400
C1065       C  0.34626634  0.64765431  0.09625018    -0.17400
H1066       H  0.44489620  0.65477430  0.11497595     0.15500
H1067       H  0.44765542  0.62757430  0.13739710     0.15500
H1068       H  0.31579958  0.64665421  0.11961805     0.15500
H1069       H  0.31890376  0.62227979  0.14508869     0.15500
H1070       H  0.39374411  0.67286784  0.06628205     0.13800
H1071       H  0.35849027  0.66823858  0.06605254     0.13800
H1072       H  0.40418215  0.57006556  0.14800116     0.13800
H1073       H  0.36873693  0.56797712  0.15024499     0.13800
H1074       H  0.39622894  0.62466306  0.11241922     0.27000
H1075       H  0.36564386  0.61998764  0.11233679     0.27000
N1076       N  0.61135883  0.41901784  0.11600101    -0.35700
N1077       N  0.59297189  0.38840974  0.13332265    -0.56300
N1078       N  0.61360021  0.36372022  0.11172109    -0.35700
N1079       N  0.63374285  0.39432799  0.09634289    -0.56300
C1080       C  0.60295052  0.42757569  0.12958389     0.27900
C1081       C  0.62338216  0.43069608  0.10890194     0.27900
C1082       C  0.60540768  0.35200043  0.12296886     0.27900
C1083       C  0.62779010  0.35515222  0.10436680     0.27900
C1084       C  0.58400641  0.40209432  0.14109300     0.36500
C1085       C  0.58417919  0.37314031  0.13780234     0.36500
C1086       C  0.63885109  0.40966961  0.08810154     0.36500
C1087       C  0.64103021  0.38069886  0.08691898     0.36500
C1088       C  0.60942430  0.44507792  0.13083533    -0.21000
C1089       C  0.62223966  0.44705363  0.11775579    -0.21000
C1090       C  0.61420834  0.33561585  0.12226316    -0.21000
C1091       C  0.62842220  0.33767730  0.11077315    -0.21000
C1092       C  0.56955574  0.39549413  0.15076456    -0.22100
C1093       C  0.56965710  0.37717809  0.14868788    -0.22100
C1094       C  0.64951680  0.40578236  0.07340654    -0.22100
C1095       C  0.65091603  0.38741705  0.07266534    -0.22100
C1096       C  0.58921002  0.42036221  0.14056881    -0.17400
C1097       C  0.63513096  0.42714012  0.09444977    -0.17400
C1098       C  0.63993220  0.36236086  0.09164004    -0.17400
C1099       C  0.59006531  0.35556373  0.13362223    -0.17400
H1100       H  0.60535017  0.45542051  0.14020613     0.15500
H1101       H  0.62993857  0.45913553  0.11517991     0.15500
H1102       H  0.61095376  0.32338506  0.12935077     0.15500
H1103       H  0.63810615  0.32737257  0.10751584     0.15500
H1104       H  0.56009224  0.40305742  0.15875360     0.13800
H1105       H  0.56039238  0.36793395  0.15497775     0.13800
H1106       H  0.65585172  0.41518884  0.06433922     0.13800
H1107       H  0.65846057  0.37987180  0.06282217     0.13800
H1108       H  0.60852139  0.40614734  0.11143714     0.27000
H1109       H  0.60938531  0.37661750  0.10865626     0.27000
N1110       N  0.62981634  0.63521211  0.91246904    -0.35700
N1111       N  0.60746591  0.64953106  0.88396721    -0.56300
N1112       N  0.62845051  0.62905919  0.85728526    -0.35700
N1113       N  0.64875233  0.61245404  0.88618116    -0.56300
C1114       C  0.61776289  0.64452683  0.92233666     0.27900
C1115       C  0.63846810  0.62390378  0.92372540     0.27900
C1116       C  0.61448882  0.63455656  0.84693773     0.27900
C1117       C  0.63749517  0.61636592  0.84791158     0.27900
C1118       C  0.60222476  0.66060511  0.89739955     0.36500
C1119       C  0.60034332  0.65612892  0.86862576     0.36500
C1120       C  0.65762364  0.60758357  0.90130242     0.36500
C1121       C  0.65808510  0.60560811  0.87219515     0.36500
C1122       C  0.61903490  0.63932579  0.94017948    -0.21000
C1123       C  0.63202030  0.62628820  0.94104738    -0.21000
C1124       C  0.61481560  0.62536535  0.83067817    -0.21000
C1125       C  0.62944345  0.61416471  0.83117112    -0.21000
C1126       C  0.59159123  0.67424871  0.89060594    -0.22100
C1127       C  0.59047424  0.67148392  0.87238042    -0.22100
C1128       C  0.67242989  0.59722618  0.89692089    -0.22100
C1129       C  0.67274701  0.59601130  0.87850745    -0.22100
C1130       C  0.60596390  0.65791785  0.91583634    -0.17400
C1131       C  0.65245838  0.61192723  0.91906934    -0.17400
C1132       C  0.65301237  0.60699877  0.85387420    -0.17400
C1133       C  0.60181122  0.64805226  0.85141679    -0.17400
H1134       H  0.61140755  0.64436268  0.95145174     0.15500
H1135       H  0.63626704  0.61940272  0.95313521     0.15500
H1136       H  0.60553713  0.62658237  0.81949099     0.15500
H1137       H  0.63344634  0.60529993  0.82039059     0.15500
H1138       H  0.58525443  0.68502151  0.89801019     0.13800
H1139       H  0.58324750  0.67989905  0.86297788     0.13800
H1140       H  0.68205006  0.59119667  0.90604213     0.13800
H1141       H  0.68253821  0.58869130  0.87069974     0.13800
H1142       H  0.63255748  0.63699023  0.89899348     0.27000
H1143       H  0.63204538  0.63424983  0.86971691     0.27000
N1144       N  0.83875014  0.62782759  0.12441130    -0.35700
N1145       N  0.86793275  0.64632674  0.14263583    -0.56300
N1146       N  0.89411511  0.62552873  0.12181134    -0.35700
N1147       N  0.86449222  0.60905447  0.10157982    -0.56300
C1148       C  0.82948056  0.64078825  0.13309956     0.27900
C1149       C  0.82769082  0.62073571  0.11175817     0.27900
C1150       C  0.90452107  0.63886443  0.12872279     0.27900
C1151       C  0.90269693  0.61888317  0.10722848     0.27900
C1152       C  0.85412959  0.65161562  0.15314676     0.36500
C1153       C  0.88322778  0.65062277  0.15157981     0.36500
C1154       C  0.84934030  0.59972201  0.09757560     0.36500
C1155       C  0.87837888  0.59886533  0.09594633     0.36500
C1156       C  0.81224485  0.64184878  0.12591001    -0.21000
C1157       C  0.81111992  0.62918344  0.11243713    -0.21000
C1158       C  0.91992054  0.64066630  0.11844844    -0.21000
C1159       C  0.91876737  0.62805898  0.10488360    -0.21000
C1160       C  0.86065647  0.65937684  0.16882874    -0.22100
C1161       C  0.87909789  0.65864161  0.16790480    -0.22100
C1162       C  0.85357379  0.58364964  0.08921243    -0.22100
C1163       C  0.87198899  0.58302375  0.08832904    -0.22100
C1164       C  0.83581121  0.65083108  0.14805116    -0.17400
C1165       C  0.83171670  0.60588263  0.10068101    -0.17400
C1166       C  0.89660214  0.60435557  0.09641835    -0.17400
C1167       C  0.90073894  0.64902678  0.14437229    -0.17400
H1168       H  0.80145712  0.65058430  0.13012954     0.15500
H1169       H  0.79934311  0.62631469  0.10427571     0.15500
H1170       H  0.93080305  0.65018372  0.12042131     0.15500
H1171       H  0.92857901  0.62600297  0.09440395     0.15500
H1172       H  0.85294387  0.66516395  0.17967693     0.13800
H1173       H  0.88838960  0.66375004  0.17796343     0.13800
H1174       H  0.84436067  0.57342075  0.08432784     0.13800
H1175       H  0.87975997  0.57212459  0.08272051     0.13800
H1176       H  0.85148458  0.62318183  0.12769198     0.27000
H1177       H  0.88224490  0.62061449  0.12729322     0.27000
N1178       N  0.63084871  0.83221466  0.11729167    -0.35700
N1179       N  0.61118731  0.85978952  0.09714480    -0.56300
N1180       N  0.63121818  0.88744363  0.11644597    -0.35700
N1181       N  0.65271192  0.85983732  0.13467820    -0.56300
C1182       C  0.62178121  0.82184319  0.10528358     0.27900
C1183       C  0.64386704  0.82192466  0.12478642     0.27900
C1184       C  0.62337440  0.89732812  0.10331345     0.27900
C1185       C  0.64483588  0.89739590  0.12344373     0.27900
C1186       C  0.60145337  0.84521201  0.09216650     0.36500
C1187       C  0.60195504  0.87434519  0.09143371     0.36500
C1188       C  0.65905071  0.84538150  0.14364887     0.36500
C1189       C  0.65881015  0.87452248  0.14357838     0.36500
C1190       C  0.62904022  0.80469428  0.10525394    -0.21000
C1191       C  0.64295470  0.80475030  0.11752999    -0.21000
C1192       C  0.63207626  0.91378544  0.10204149    -0.21000
C1193       C  0.64560394  0.91382917  0.11473881    -0.21000
C1194       C  0.58606088  0.85053979  0.08302111    -0.22100
C1195       C  0.58639676  0.86899663  0.08253522    -0.22100
C1196       C  0.66950779  0.85091368  0.15815285    -0.22100
C1197       C  0.66930900  0.86938475  0.15814438    -0.22100
C1198       C  0.60670872  0.82715119  0.09483957    -0.17400
C1199       C  0.65600612  0.82727851  0.13858922    -0.17400
C1200       C  0.65600304  0.89246401  0.13806898    -0.17400
C1201       C  0.60798589  0.89230839  0.09315304    -0.17400
H1202       H  0.62471821  0.79326600  0.09726777     0.15500
H1203       H  0.65138276  0.79337948  0.12080319     0.15500
H1204       H  0.62895335  0.92470907  0.09299484     0.15500
H1205       H  0.65491486  0.92476794  0.11730838     0.15500
H1206       H  0.57573183  0.84201436  0.07717402     0.13800
H1207       H  0.57642635  0.87748524  0.07620500     0.13800
H1208       H  0.67656634  0.84252744  0.16771588     0.13800
H1209       H  0.67626760  0.87803655  0.16764840     0.13800
H1210       H  0.62766790  0.84527476  0.12083413     0.27000
H1211       H  0.62684897  0.87510022  0.12119742     0.27000
O1212       O  0.72363873  0.48812549  0.70117876    -0.77600
C1213       C  0.76047656  0.53430371  0.70209183     0.83400
O1214       O  0.77386548  0.47085201  0.73900992    -0.78700
O1215       O  0.77085973  0.53154066  0.75771744    -0.80200
O1216       O  0.70608776  0.52332139  0.75444630    -0.80000
O1217       O  0.70239314  0.49080375  0.72195337    -0.78600
Zn1218     Zn  0.74647136  0.49717723  0.71275286     1.55700
O1219       O  0.72842418  0.54337093  0.75462994    -0.80000
Cd1220     Cd  0.71701831  0.50045172  0.74358302     1.59700
Cd1221     Cd  0.75795239  0.48815406  0.75430975     1.59600
O1222       O  0.71416325  0.48201577  0.76372952    -0.80000
O1223       O  0.74284528  0.50359169  0.73774412    -1.90500
Cd1224     Cd  0.74880827  0.52952811  0.74120108     1.59900
O1225       O  0.74161103  0.47261321  0.77135936    -0.80000
O1226       O  0.75677467  0.54128118  0.71731137    -0.78600
C1227       C  0.77369819  0.46782619  0.72211484     0.83900
C1228       C  0.70750034  0.48592987  0.70639080     0.83600
O1229       O  0.75708515  0.51785047  0.69857734    -0.77600
C1230       C  0.71255934  0.53853403  0.75901864     0.84400
O1231       O  0.76375211  0.47666157  0.71134520    -0.77700
C1232       C  0.72454647  0.47238718  0.77329560     0.84500
C1233       C  0.77895572  0.52111559  0.76858164     0.84800
O1234       O  0.77504662  0.50444433  0.76986330    -0.80100
O1235       O  0.96031411  0.00978892  0.47871534    -0.77600
C1236       C  0.96597349  0.96241812  0.51500255     0.83400
O1237       O  0.99247046  0.03182017  0.52875190    -0.78700
O1238       O  0.02221019  0.97376981  0.52673352    -0.80200
O1239       O  0.01503822  0.97809904  0.46173225    -0.80000
O1240       O  0.98225916  0.01011210  0.45849008    -0.78600
Zn1241     Zn  0.97186717  0.00046810  0.50152461     1.55700
O1242       O  0.01675001  0.95916476  0.48479284    -0.80000
Cd1243     Cd  0.00399600  0.00097435  0.47320619     1.59700
Cd1244     Cd  0.01083029  0.01615370  0.51444157     1.59600
O1245       O  0.02319665  0.02061282  0.47147781    -0.80000
O1246       O  0.99762774  0.99784685  0.49890716    -1.90500
Cd1247     Cd  0.00452667  0.97291941  0.50555685     1.59900
O1248       O  0.02659867  0.03322789  0.49859280    -0.80000
O1249       O  0.98258115  0.95843628  0.51415694    -0.78600
C1250       C  0.97543597  0.03016613  0.52997849     0.83900
C1251       C  0.96608716  0.01330024  0.46301648     0.83600
O1252       O  0.96003920  0.97752926  0.50966884    -0.77600
C1253       C  0.01977510  0.96308751  0.46843870     0.84400
O1254       O  0.96670753  0.01855921  0.52079846    -0.77700
C1255       C  0.03028614  0.03230236  0.48187919     0.84500
C1256       C  0.02977479  0.98602675  0.53606788     0.84800
O1257       O  0.02725958  0.00275888  0.53318060    -0.80100
C1258       C  0.54639417  0.04412838  0.73429948     0.81100
N1259       N  0.53119068  0.05106861  0.72708143    -0.77200
C1260       C  0.52289883  0.04299943  0.71288664     0.83500
N1261       N  0.53009320  0.02775893  0.70569162    -0.77100
C1262       C  0.54552940  0.02075781  0.71277550     0.83600
N1263       N  0.55352640  0.02901644  0.72707645    -0.78900
C1264       C  0.72280217  0.03982302  0.54271482     0.81100
N1265       N  0.71569764  0.04705358  0.52751881    -0.77200
C1266       C  0.70002980  0.04067971  0.52045389     0.83500
N1267       N  0.69142132  0.02687852  0.52871450    -0.77100
C1268       C  0.69838059  0.01949319  0.54393811     0.83600
N1269       N  0.71406953  0.02603453  0.55089903    -0.78900
C1270       C  0.53815917  0.22316879  0.54088150     0.81100
N1271       N  0.54473207  0.21582226  0.52552175    -0.77200
C1272       C  0.53729613  0.20062357  0.51849832     0.83500
N1273       N  0.52305893  0.19289755  0.52683392    -0.77100
C1274       C  0.51630755  0.20012279  0.54213720     0.83600
N1275       N  0.52397943  0.21521807  0.54920093    -0.78900
N1276       N  0.61988305  0.12078979  0.41181828    -0.35700
N1277       N  0.60570833  0.14518806  0.38444229    -0.56300
N1278       N  0.62364326  0.12401950  0.35678322    -0.35700
N1279       N  0.63966280  0.10114430  0.38429672    -0.56300
C1280       C  0.61313030  0.13407571  0.42221628     0.27900
C1281       C  0.63124295  0.11108410  0.42220751     0.27900
C1282       C  0.61794273  0.13824475  0.34702052     0.27900
C1283       C  0.63614889  0.11530995  0.34693787     0.27900
C1284       C  0.59590160  0.15059987  0.39868828     0.36500
C1285       C  0.59773341  0.15219395  0.36967687     0.36500
C1286       C  0.64359001  0.09068688  0.39861712     0.36500
C1287       C  0.64541350  0.09226052  0.36953578     0.36500
C1288       C  0.62011502  0.13268213  0.43948353    -0.21000
C1289       C  0.63151912  0.11818273  0.43948809    -0.21000
C1290       C  0.62684480  0.13855311  0.33072030    -0.21000
C1291       C  0.63827312  0.12408066  0.33062979    -0.21000
C1292       C  0.58175426  0.16127392  0.39298464    -0.22100
C1293       C  0.58289909  0.16226356  0.37458058    -0.22100
C1294       C  0.65212179  0.07515998  0.39296507    -0.22100
C1295       C  0.65328631  0.07615591  0.37455055    -0.22100
C1296       C  0.60013653  0.14684172  0.41682211    -0.17400
C1297       C  0.64078784  0.09556433  0.41677976    -0.17400
C1298       C  0.64486976  0.09909890  0.35178765    -0.17400
C1299       C  0.60416107  0.15031496  0.35193661    -0.17400
H1300       H  0.61722879  0.14117416  0.45093907     0.15500
H1301       H  0.63909212  0.11339272  0.45097193     0.15500
H1302       H  0.62513002  0.14809738  0.31990033     0.15500
H1303       H  0.64696333  0.12039604  0.31963047     0.15500
H1304       H  0.57169076  0.16769761  0.40122802     0.13800
H1305       H  0.57388004  0.16959522  0.36582088     0.13800
H1306       H  0.65725755  0.06439259  0.40126467     0.13800
H1307       H  0.65954798  0.06631030  0.36590397     0.13800
H1308       H  0.61616279  0.11792329  0.39867063     0.27000
H1309       H  0.61843653  0.11985029  0.36895947     0.27000
N1310       N  0.41360057  0.12153941  0.63204175    -0.35700
N1311       N  0.38632145  0.09867074  0.64839913    -0.56300
N1312       N  0.35831616  0.12014029  0.63134773    -0.35700
N1313       N  0.38564056  0.14151590  0.61327255    -0.56300
C1314       C  0.42393688  0.10826745  0.63889684     0.27900
C1315       C  0.42357825  0.13040510  0.61974777     0.27900
C1316       C  0.34877561  0.10570768  0.63692035     0.27900
C1317       C  0.34839161  0.12843344  0.61855512     0.27900
C1318       C  0.40088473  0.09345155  0.65798319     0.36500
C1319       C  0.37176285  0.09235935  0.65717831     0.36500
C1320       C  0.40007510  0.15148246  0.60854491     0.36500
C1321       C  0.37091355  0.15109061  0.60868932     0.36500
C1322       C  0.44077786  0.10881234  0.63101497    -0.21000
C1323       C  0.44054818  0.12276300  0.61891816    -0.21000
C1324       C  0.33261091  0.10480842  0.62755899    -0.21000
C1325       C  0.33229329  0.11922573  0.61608839    -0.21000
C1326       C  0.39558607  0.08366894  0.67286617    -0.22100
C1327       C  0.37711352  0.08304807  0.67240675    -0.22100
C1328       C  0.39450903  0.16741546  0.60072804    -0.22100
C1329       C  0.37601962  0.16717708  0.60082924    -0.22100
C1330       C  0.41888416  0.09635702  0.65277512    -0.17400
C1331       C  0.41812716  0.14577072  0.60998127    -0.17400
C1332       C  0.35305511  0.14464789  0.60986920    -0.17400
C1333       C  0.35384406  0.09391830  0.65090086    -0.17400
H1334       H  0.45211531  0.10015268  0.63378667     0.15500
H1335       H  0.45169646  0.12690992  0.61060033     0.15500
H1336       H  0.32203938  0.09488049  0.62892992     0.15500
H1337       H  0.32135163  0.12251338  0.60705102     0.15500
H1338       H  0.40413915  0.07753622  0.68293138     0.13800
H1339       H  0.36862215  0.07642206  0.68212793     0.13800
H1340       H  0.40288668  0.17795988  0.59524980     0.13800
H1341       H  0.36736516  0.17746029  0.59531217     0.13800
H1342       H  0.40082343  0.12498097  0.63630539     0.27000
H1343       H  0.37039402  0.12473925  0.63678989     0.27000
C1344       C  0.70197836  0.20760651  0.72672537     0.81100
N1345       N  0.69406472  0.22229662  0.71933837    -0.77200
C1346       C  0.70007447  0.22928156  0.70365032     0.83500
N1347       N  0.71401926  0.22128263  0.69514368    -0.77100
C1348       C  0.72226596  0.20672036  0.70242097     0.83600
N1349       N  0.71626415  0.19991097  0.71830222    -0.78900
N1350       N  0.61653356  0.33388308  0.62041619    -0.35700
N1351       N  0.59678615  0.36122791  0.59988772    -0.56300
N1352       N  0.61708882  0.38937886  0.61844737    -0.35700
N1353       N  0.63853313  0.36172457  0.63712634    -0.56300
C1354       C  0.60622200  0.32312261  0.60988602     0.27900
C1355       C  0.62898126  0.32342406  0.62859762     0.27900
C1356       C  0.60889532  0.39929868  0.60553661     0.27900
C1357       C  0.63047105  0.39953280  0.62560474     0.27900
C1358       C  0.58684518  0.34661691  0.59533405     0.36500
C1359       C  0.58801878  0.37572893  0.59333967     0.36500
C1360       C  0.64563485  0.34738231  0.64569039     0.36500
C1361       C  0.64554117  0.37650902  0.64509723     0.36500
C1362       C  0.61203448  0.30550056  0.61158956    -0.21000
C1363       C  0.62634145  0.30569281  0.62335546    -0.21000
C1364       C  0.61702422  0.41608976  0.60474011    -0.21000
C1365       C  0.63052843  0.41627406  0.61744338    -0.21000
C1366       C  0.57177647  0.35184823  0.58565576    -0.22100
C1367       C  0.57248639  0.37024606  0.58443892    -0.22100
C1368       C  0.65744548  0.35309995  0.65904171    -0.22100
C1369       C  0.65731872  0.37154252  0.65873189    -0.22100
C1370       C  0.59137533  0.32854298  0.59917235    -0.17400
C1371       C  0.64222587  0.32919573  0.64117742    -0.17400
C1372       C  0.64244191  0.39438937  0.63954735    -0.17400
C1373       C  0.59414457  0.39377983  0.59460593    -0.17400
H1374       H  0.60650411  0.29364552  0.60511263     0.15500
H1375       H  0.63377747  0.29399854  0.62769626     0.15500
H1376       H  0.61369029  0.42708961  0.59586143     0.15500
H1377       H  0.63950521  0.42744592  0.62020105     0.15500
H1378       H  0.56133069  0.34329906  0.58005955     0.13800
H1379       H  0.56260837  0.37861464  0.57781832     0.13800
H1380       H  0.66542184  0.34486750  0.66799797     0.13800
H1381       H  0.66524797  0.38028242  0.66735799     0.13800
H1382       H  0.61466478  0.34746278  0.62235493     0.27000
H1383       H  0.61337545  0.37668956  0.62269424     0.27000
N1384       N  0.62127951  0.91206565  0.62996458    -0.35700
N1385       N  0.63951751  0.88534914  0.60760056    -0.56300
N1386       N  0.62027992  0.85680810  0.62631653    -0.35700
N1387       N  0.60022751  0.88373328  0.64678831    -0.56300
C1388       C  0.62975019  0.92298819  0.61821600     0.27900
C1389       C  0.60915012  0.92213043  0.63896037     0.27900
C1390       C  0.62792150  0.84742872  0.61275782     0.27900
C1391       C  0.60681892  0.84656963  0.63299162     0.27900
C1392       C  0.64895443  0.90013078  0.60285583     0.36500
C1393       C  0.64868572  0.87105027  0.60123759     0.36500
C1394       C  0.59496666  0.89775402  0.65709714     0.36500
C1395       C  0.59419165  0.86865365  0.65488101     0.36500
C1396       C  0.62308678  0.94029529  0.61993252    -0.21000
C1397       C  0.61010805  0.93975429  0.63298970    -0.21000
C1398       C  0.61936612  0.83092226  0.61096383    -0.21000
C1399       C  0.60596653  0.83045284  0.62358491    -0.21000
C1400       C  0.66396445  0.89522905  0.59307267    -0.22100
C1401       C  0.66380864  0.87681201  0.59206008    -0.22100
C1402       C  0.58541857  0.89157543  0.67176971    -0.22100
C1403       C  0.58502897  0.87315049  0.67044144    -0.22100
C1404       C  0.64393920  0.91803948  0.60662916    -0.17400
C1405       C  0.59775235  0.91608455  0.65290641    -0.17400
C1406       C  0.59573744  0.85102598  0.64777207    -0.17400
C1407       C  0.64304323  0.85295106  0.60269544    -0.17400
H1408       H  0.62724396  0.95216048  0.61265594     0.15500
H1409       H  0.60238906  0.95113061  0.63765770     0.15500
H1410       H  0.62238333  0.82025171  0.60156935     0.15500
H1411       H  0.59671756  0.81939628  0.62562516     0.15500
H1412       H  0.67398285  0.90400596  0.58724967     0.13800
H1413       H  0.67361895  0.86864903  0.58516680     0.13800
H1414       H  0.57931371  0.89951857  0.68228844     0.13800
H1415       H  0.57860209  0.86412364  0.67981460     0.13800
H1416       H  0.62426371  0.89872755  0.63231876     0.27000
H1417       H  0.62470627  0.86903275  0.63142164     0.27000
N1418       N  0.82991061  0.12859899  0.61902446    -0.35700
N1419       N  0.85802520  0.14338763  0.64287460    -0.56300
N1420       N  0.88556243  0.12510746  0.62156674    -0.35700
N1421       N  0.85705842  0.10793436  0.59993909    -0.56300
C1422       C  0.81972984  0.13624887  0.63198820     0.27900
C1423       C  0.81925082  0.11694385  0.60971839     0.27900
C1424       C  0.89546679  0.13076483  0.63588852     0.27900
C1425       C  0.89493990  0.11187523  0.61332287     0.27900
C1426       C  0.84388000  0.15344766  0.64823731     0.36500
C1427       C  0.87299270  0.15130112  0.64980171     0.36500
C1428       C  0.84255716  0.10395938  0.58954100     0.36500
C1429       C  0.87167100  0.10231168  0.59081059     0.36500
C1430       C  0.80231437  0.12956738  0.63068968    -0.21000
C1431       C  0.80199145  0.11751841  0.61663362    -0.21000
C1432       C  0.91142106  0.12120277  0.63657048    -0.21000
C1433       C  0.91107664  0.10929920  0.62240702    -0.21000
C1434       C  0.84990869  0.16777358  0.65863082    -0.22100
C1435       C  0.86829318  0.16643282  0.65960254    -0.22100
C1436       C  0.84798060  0.09566475  0.57379577    -0.22100
C1437       C  0.86638972  0.09486774  0.57447546    -0.22100
C1438       C  0.82553289  0.14945890  0.64464036    -0.17400
C1439       C  0.82445564  0.10632560  0.59473661    -0.17400
C1440       C  0.88950097  0.10222869  0.59768982    -0.17400
C1441       C  0.89074665  0.14459176  0.64814008    -0.17400
H1442       H  0.79094640  0.13292569  0.63903918     0.15500
H1443       H  0.79029318  0.11007707  0.61205658     0.15500
H1444       H  0.92214650  0.12245946  0.64640214     0.15500
H1445       H  0.92150037  0.09968549  0.61934608     0.15500
H1446       H  0.84192001  0.17819979  0.66480596     0.13800
H1447       H  0.87716224  0.17566722  0.66663500     0.13800
H1448       H  0.83959983  0.09054125  0.56298734     0.13800
H1449       H  0.87487876  0.08917233  0.56418501     0.13800
H1450       H  0.84316637  0.13175450  0.61625975     0.27000
H1451       H  0.87344001  0.13045193  0.61726114     0.27000
N1452       N  0.63236489  0.12295334  0.83929506    -0.35700
N1453       N  0.64929412  0.14645051  0.86585889    -0.56300
N1454       N  0.62956909  0.12804589  0.89444652    -0.35700
N1455       N  0.61510892  0.10255157  0.86782550    -0.56300
C1456       C  0.64428192  0.13161434  0.82870354     0.27900
C1457       C  0.62561673  0.10899163  0.82970406     0.27900
C1458       C  0.64167980  0.13773846  0.90412919     0.27900
C1459       C  0.62372839  0.11456025  0.90512419     0.27900
C1460       C  0.65437664  0.15505625  0.85069927     0.36500
C1461       C  0.65291983  0.15768736  0.87974454     0.36500
C1462       C  0.60681437  0.09486348  0.85349729     0.36500
C1463       C  0.60612680  0.09694004  0.88251365     0.36500
C1464       C  0.64496324  0.12309251  0.81209211    -0.21000
C1465       C  0.63318124  0.10885271  0.81272357    -0.21000
C1466       C  0.64340355  0.13037659  0.92117324    -0.21000
C1467       C  0.63201102  0.11583930  0.92182604    -0.21000
C1468       C  0.66143450  0.17179161  0.85498157    -0.22100
C1469       C  0.66037129  0.17353083  0.87334078    -0.22100
C1470       C  0.59272857  0.08406865  0.85912684    -0.22100
C1471       C  0.59225653  0.08542462  0.87750917    -0.22100
C1472       C  0.65369418  0.14760918  0.83316649    -0.17400
C1473       C  0.61203119  0.09702724  0.83541990    -0.17400
C1474       C  0.61081808  0.10133956  0.90042763    -0.17400
C1475       C  0.65096622  0.15323219  0.89816185    -0.17400
H1476       H  0.65283984  0.12689664  0.80052877     0.15500
H1477       H  0.63036354  0.09957330  0.80182159     0.15500
H1478       H  0.65217089  0.13479618  0.93198966     0.15500
H1479       H  0.63025615  0.10702801  0.93323394     0.15500
H1480       H  0.66684270  0.18169571  0.84584760     0.13800
H1481       H  0.66478052  0.18509180  0.88107620     0.13800
H1482       H  0.58371745  0.07606087  0.85085688     0.13800
H1483       H  0.58274050  0.07872161  0.88617859     0.13800
H1484       H  0.62823401  0.12694027  0.85194013     0.27000
H1485       H  0.62494959  0.13094085  0.88158181     0.28600
C1486       C  0.01990077  0.71077635  0.53584704     0.81100
N1487       N  0.02636491  0.70388422  0.52021605    -0.77200
C1488       C  0.04050472  0.71183359  0.51182340     0.83500
N1489       N  0.04816251  0.72679988  0.51915919    -0.77100
C1490       C  0.04167762  0.73395452  0.53463330     0.83600
N1491       N  0.02759557  0.72583400  0.54294221    -0.78900
N1492       N  0.12889652  0.63096152  0.40980829    -0.35700
N1493       N  0.14741818  0.60943488  0.38305889    -0.56300
N1494       N  0.12745136  0.62744821  0.35452513    -0.35700
N1495       N  0.10698487  0.64723449  0.38160397    -0.56300
C1496       C  0.13686960  0.61852090  0.42038080     0.27900
C1497       C  0.11590767  0.63891596  0.41962819     0.27900
C1498       C  0.13472556  0.61352789  0.34535415     0.27900
C1499       C  0.11360356  0.63380436  0.34453376     0.27900
C1500       C  0.15760359  0.60566442  0.39766353     0.36500
C1501       C  0.15664595  0.60355727  0.36863129     0.36500
C1502       C  0.10267029  0.65797249  0.39562754     0.36500
C1503       C  0.10156834  0.65587320  0.36656178     0.36500
C1504       C  0.12888679  0.61866036  0.43719874    -0.21000
C1505       C  0.11565517  0.63154018  0.43671391    -0.21000
C1506       C  0.12544259  0.61109831  0.32929156    -0.21000
C1507       C  0.11214514  0.62389595  0.32876449    -0.21000
C1508       C  0.17336936  0.59728003  0.39250691    -0.22100
C1509       C  0.17281489  0.59605199  0.37409397    -0.22100
C1510       C  0.09435570  0.67342936  0.38950735    -0.22100
C1511       C  0.09369377  0.67212703  0.37107847    -0.22100
C1512       C  0.15193557  0.60802323  0.41557656    -0.17400
C1513       C  0.10517445  0.65346254  0.41390019    -0.17400
C1514       C  0.10279366  0.64879887  0.34891793    -0.17400
C1515       C  0.14987671  0.60338114  0.35083398    -0.17400
H1516       H  0.13239800  0.61058748  0.44875938     0.15500
H1517       H  0.10700033  0.63522066  0.44776157     0.15500
H1518       H  0.12794011  0.60112934  0.31899427     0.15500
H1519       H  0.10245792  0.62564577  0.31799767     0.15500
H1520       H  0.18400539  0.59225107  0.40108805     0.13800
H1521       H  0.18301150  0.59003070  0.36571768     0.13800
H1522       H  0.08926988  0.68445849  0.39749103     0.13800
H1523       H  0.08806247  0.68203048  0.36205579     0.13800
H1524       H  0.13287884  0.63469232  0.39701114     0.27000
H1525       H  0.13224053  0.63293605  0.36648406     0.27000
C1526       C  0.22301821  0.70357710  0.69679506     0.81100
N1527       N  0.21666405  0.71960750  0.69093666    -0.77200
C1528       C  0.20210959  0.72726467  0.69875086     0.83500
N1529       N  0.19383029  0.71871981  0.71258962    -0.77100
C1530       C  0.20004682  0.70261253  0.71856032     0.83600
N1531       N  0.21462192  0.69511661  0.71057860    -0.78900
C1532       C  0.20414092  0.51488677  0.53493207     0.81100
N1533       N  0.21977150  0.52125253  0.54204890    -0.77200
C1534       C  0.22738106  0.53657347  0.53569718     0.83500
N1535       N  0.21927336  0.54550802  0.52195330    -0.77100
C1536       C  0.20361777  0.53920317  0.51469056     0.83600
N1537       N  0.19607851  0.52395608  0.52130922    -0.78900
N1538       N  0.33158777  0.61886077  0.62119795    -0.35700
N1539       N  0.35851918  0.64018520  0.64068629    -0.56300
N1540       N  0.38719757  0.62100460  0.62194730    -0.35700
N1541       N  0.35997218  0.60187957  0.60040316    -0.56300
C1542       C  0.32098741  0.63079662  0.62979877     0.27900
C1543       C  0.32171176  0.61158341  0.60764642     0.27900
C1544       C  0.39667964  0.63471933  0.62954561     0.27900
C1545       C  0.39752871  0.61372971  0.60888086     0.27900
C1546       C  0.34385847  0.64400047  0.65065862     0.36500
C1547       C  0.37293528  0.64623543  0.65011581     0.36500
C1548       C  0.34562330  0.59306479  0.59331332     0.36500
C1549       C  0.37479123  0.59344277  0.59425257     0.36500
C1550       C  0.30407160  0.63087774  0.62183368    -0.21000
C1551       C  0.30453551  0.61878462  0.60785844    -0.21000
C1552       C  0.41330955  0.63600053  0.62129782    -0.21000
C1553       C  0.41388692  0.62271877  0.60839173    -0.21000
C1554       C  0.34894103  0.65260439  0.66643344    -0.22100
C1555       C  0.36735150  0.65394324  0.66614010    -0.22100
C1556       C  0.35133526  0.57910789  0.58242495    -0.22100
C1557       C  0.36977408  0.57923564  0.58313716    -0.22100
C1558       C  0.32588774  0.64104615  0.64510085    -0.17400
C1559       C  0.32746740  0.59810735  0.59554324    -0.17400
C1560       C  0.39275800  0.59916201  0.59739775    -0.17400
C1561       C  0.39094651  0.64578991  0.64402418    -0.17400
H1562       H  0.29253499  0.63879352  0.62568070     0.15500
H1563       H  0.29341420  0.61561699  0.59892981     0.15500
H1564       H  0.42392682  0.64559815  0.62414344     0.15500
H1565       H  0.42499741  0.62020562  0.59941354     0.15500
H1566       H  0.34028105  0.65749327  0.67699931     0.13800
H1567       H  0.37565094  0.65987190  0.67660218     0.13800
H1568       H  0.34309423  0.56991615  0.57459959     0.13800
H1569       H  0.37845252  0.57008098  0.57597177     0.13800
H1570       H  0.34452764  0.61528156  0.62497846     0.27000
H1571       H  0.37466044  0.61636809  0.62590600     0.27000
C1572       C  0.03604930  0.53542735  0.72154656     0.81100
N1573       N  0.02116350  0.54322743  0.71431977    -0.77200
C1574       C  0.01336524  0.53616487  0.69930871     0.83500
N1575       N  0.02046486  0.52127098  0.69166374    -0.77100
C1576       C  0.03531418  0.51342526  0.69870611     0.83600
N1577       N  0.04318154  0.52062403  0.71360187    -0.78900
N1578       N  0.11795686  0.41023812  0.61168902    -0.35700
N1579       N  0.10176322  0.38371371  0.63566172    -0.56300
N1580       N  0.12010922  0.35511894  0.61651971    -0.35700
N1581       N  0.13862720  0.38183092  0.59448998    -0.56300
C1582       C  0.11105324  0.42117322  0.62445720     0.27900
C1583       C  0.12972514  0.42009853  0.60200392     0.27900
C1584       C  0.11328020  0.34583429  0.63052132     0.27900
C1585       C  0.13323736  0.34494846  0.60926041     0.27900
C1586       C  0.09274033  0.39850443  0.64098404     0.36500
C1587       C  0.09308085  0.36946577  0.64280071     0.36500
C1588       C  0.14309461  0.39557138  0.58354372     0.36500
C1589       C  0.14464109  0.36669738  0.58650491     0.36500
C1590       C  0.11823051  0.43829077  0.62259508    -0.21000
C1591       C  0.13001580  0.43760860  0.60845921    -0.21000
C1592       C  0.12208804  0.32950577  0.63205895    -0.21000
C1593       C  0.13456889  0.32889007  0.61858176    -0.21000
C1594       C  0.07839171  0.39368268  0.65175007    -0.22100
C1595       C  0.07842035  0.37529618  0.65265280    -0.22100
C1596       C  0.15222109  0.38917607  0.56866904    -0.22100
C1597       C  0.15327219  0.37087954  0.57058200    -0.22100
C1598       C  0.09796317  0.41635553  0.63730403    -0.17400
C1599       C  0.13994722  0.41389900  0.58726209    -0.17400
C1600       C  0.14334293  0.34928083  0.59385522    -0.17400
C1601       C  0.09899659  0.35143730  0.64165264    -0.17400
H1602       H  0.11530537  0.45008862  0.63058231     0.15500
H1603       H  0.13800166  0.44874387  0.60359072     0.15500
H1604       H  0.11984530  0.31906961  0.64189368     0.15500
H1605       H  0.14357336  0.31781123  0.61599888     0.15500
H1606       H  0.06888465  0.40247131  0.65830132     0.13800
H1607       H  0.06877425  0.36722885  0.65989798     0.13800
H1608       H  0.15769878  0.39689755  0.55766843     0.13800
H1609       H  0.15978269  0.36174200  0.56136320     0.13800
H1610       H  0.11429093  0.39701362  0.60921255     0.27000
H1611       H  0.11542329  0.36723968  0.61159110     0.27000
N1612       N  0.91341295  0.62514376  0.61659444    -0.35700
N1613       N  0.88717053  0.63937077  0.59113274    -0.56300
N1614       N  0.85836230  0.62013792  0.61036183    -0.35700
N1615       N  0.88462121  0.60500397  0.63503547    -0.56300
C1616       C  0.92460645  0.63265796  0.60440183     0.27900
C1617       C  0.92333654  0.61393811  0.62691581     0.27900
C1618       C  0.84838859  0.62826735  0.59754105     0.27900
C1619       C  0.84711911  0.61015900  0.62057123     0.27900
C1620       C  0.90183309  0.64839915  0.58528734     0.36500
C1621       C  0.87279266  0.64622684  0.58233626     0.36500
C1622       C  0.89872552  0.60002386  0.64536209     0.36500
C1623       C  0.86963655  0.59845470  0.64291889     0.36500
C1624       C  0.94194659  0.62648040  0.60732151    -0.21000
C1625       C  0.94114933  0.61467447  0.62145367    -0.21000
C1626       C  0.83052566  0.62312870  0.59942348    -0.21000
C1627       C  0.82971604  0.61182474  0.61394456    -0.21000
C1628       C  0.89678419  0.66092270  0.57249454    -0.22100
C1629       C  0.87843159  0.65955600  0.57062651    -0.22100
C1630       C  0.89270145  0.59008508  0.65987977    -0.22100
C1631       C  0.87431215  0.58909484  0.65833910    -0.22100
C1632       C  0.91978516  0.64510577  0.59082302    -0.17400
C1633       C  0.91703102  0.60331555  0.64139167    -0.17400
C1634       C  0.85184371  0.60025539  0.63617808    -0.17400
C1635       C  0.85459828  0.64093114  0.58474771    -0.17400
H1636       H  0.95394727  0.62998095  0.59993742     0.15500
H1637       H  0.95246464  0.60742474  0.62702845     0.15500
H1638       H  0.81911923  0.62735622  0.59139749     0.15500
H1639       H  0.81755494  0.60584997  0.61918977     0.15500
H1640       H  0.90541145  0.67010098  0.56525784     0.13800
H1641       H  0.87017944  0.66755586  0.56170708     0.13800
H1642       H  0.90073183  0.58396216  0.67037094     0.13800
H1643       H  0.86546452  0.58203253  0.66741742     0.13800
H1644       H  0.89992909  0.62800961  0.61826446     0.27000
H1645       H  0.87196706  0.62188753  0.61232607     0.27000
N1646       N  0.11785154  0.83808357  0.62494041    -0.35700
N1647       N  0.09838116  0.86727196  0.60755352    -0.56300
N1648       N  0.11898520  0.89344867  0.62921447    -0.35700
N1649       N  0.13633030  0.86410702  0.64847941    -0.56300
C1650       C  0.10549818  0.82846627  0.61549471     0.27900
C1651       C  0.12556889  0.82683610  0.63695982     0.27900
C1652       C  0.10644464  0.90423096  0.62163183     0.27900
C1653       C  0.12632213  0.90251605  0.64332341     0.27900
C1654       C  0.09187971  0.85342836  0.59754889     0.36500
C1655       C  0.09262737  0.88257754  0.59964685     0.36500
C1656       C  0.14535401  0.84901730  0.65301464     0.36500
C1657       C  0.14576159  0.87809111  0.65547783     0.36500
C1658       C  0.10562865  0.81078968  0.62140237    -0.21000
C1659       C  0.11823663  0.80977593  0.63493318    -0.21000
C1660       C  0.10595193  0.92042348  0.63089605    -0.21000
C1661       C  0.11834967  0.91928527  0.64464757    -0.21000
C1662       C  0.08157199  0.85997542  0.58345199    -0.22100
C1663       C  0.08208139  0.87841281  0.58474605    -0.22100
C1664       C  0.16048530  0.85340854  0.66309457    -0.22100
C1665       C  0.16083046  0.87179952  0.66452607    -0.22100
C1666       C  0.09446595  0.83495157  0.60133638    -0.17400
C1667       C  0.13963989  0.83126664  0.64911448    -0.17400
C1668       C  0.14044268  0.89635235  0.65463858    -0.17400
C1669       C  0.09597036  0.90023261  0.60613283    -0.17400
H1670       H  0.09753353  0.79968746  0.61646810     0.15500
H1671       H  0.12169066  0.79775767  0.64232105     0.15500
H1672       H  0.09744468  0.93186482  0.62814281     0.15500
H1673       H  0.12113982  0.92967634  0.65449720     0.15500
H1674       H  0.07434334  0.85227256  0.57335043     0.13800
H1675       H  0.07523841  0.88767958  0.57587285     0.13800
H1676       H  0.17027562  0.84431524  0.66882662     0.13800
H1677       H  0.17105413  0.87960269  0.67145419     0.13800
H1678       H  0.12142588  0.85133361  0.62278397     0.27000
H1679       H  0.12298400  0.88103787  0.62437778     0.27000
N1680       N  0.11420813  0.62429619  0.82539904    -0.35700
N1681       N  0.09436389  0.60535051  0.85371040    -0.56300
N1682       N  0.11715985  0.62223946  0.88075520    -0.35700
N1683       N  0.13505521  0.64327615  0.85242102    -0.56300
C1684       C  0.10131750  0.61605556  0.81548160     0.27900
C1685       C  0.12198160  0.63692235  0.81491610     0.27900
C1686       C  0.10413976  0.61520547  0.89128650     0.27900
C1687       C  0.12592661  0.63481467  0.89061463     0.27900
C1688       C  0.08887786  0.59582038  0.83917707     0.36500
C1689       C  0.08949504  0.59571305  0.86828617     0.36500
C1690       C  0.14333385  0.64974117  0.83763708     0.36500
C1691       C  0.14526610  0.64819009  0.86668930     0.36500
C1692       C  0.10097215  0.62338698  0.79835474    -0.21000
C1693       C  0.11399152  0.63656479  0.79800432    -0.21000
C1694       C  0.10481554  0.62330056  0.90810147    -0.21000
C1695       C  0.11869231  0.63549042  0.90775182    -0.21000
C1696       C  0.08037119  0.58013973  0.84454101    -0.22100
C1697       C  0.08078804  0.58006126  0.86298012    -0.22100
C1698       C  0.15876827  0.65906212  0.84257105    -0.22100
C1699       C  0.16002300  0.65804077  0.86097650    -0.22100
C1700       C  0.09060082  0.60141597  0.82114387    -0.17400
C1701       C  0.13672210  0.64803735  0.81983427    -0.17400
C1702       C  0.14069115  0.64525668  0.88485058    -0.17400
C1703       C  0.09207818  0.60128382  0.88630967    -0.17400
H1704       H  0.09238882  0.61949936  0.78718323     0.15500
H1705       H  0.11736050  0.64473828  0.78649116     0.15500
H1706       H  0.09620689  0.62079909  0.91949444     0.15500
H1707       H  0.12283195  0.64399694  0.91886513     0.15500
H1708       H  0.07450361  0.56980476  0.83604758     0.13800
H1709       H  0.07542820  0.56959326  0.87149245     0.13800
H1710       H  0.16806260  0.66600652  0.83384564     0.13800
H1711       H  0.17042351  0.66416166  0.86922763     0.13800
H1712       H  0.11807281  0.62068822  0.83825254     0.27000
H1713       H  0.12051261  0.61815276  0.86787205     0.27000
C1714       C  0.79675679  0.27267936  0.29821018     0.81100
N1715       N  0.78291633  0.28117748  0.30657083    -0.77200
C1716       C  0.77545736  0.29612583  0.29914983     0.83500
N1717       N  0.78200235  0.30252964  0.28340925    -0.77100
C1718       C  0.79590401  0.29429471  0.27506064     0.83600
N1719       N  0.80319125  0.27933100  0.28249033    -0.78900
N1720       N  0.66400678  0.37176460  0.38261923    -0.35700
N1721       N  0.63482418  0.39484378  0.39538863    -0.56300
N1722       N  0.60966770  0.37554540  0.37212801    -0.35700
N1723       N  0.63936196  0.35470930  0.35710093    -0.56300
C1724       C  0.67340274  0.38410498  0.39224446     0.27900
C1725       C  0.67581006  0.36322704  0.37178199     0.27900
C1726       C  0.59927985  0.38942219  0.37749121     0.27900
C1727       C  0.60153939  0.36794382  0.35766860     0.27900
C1728       C  0.64781077  0.39969946  0.40725459     0.36500
C1729       C  0.61926177  0.40179114  0.40158094     0.36500
C1730       C  0.65397249  0.34421110  0.35475623     0.36500
C1731       C  0.62525954  0.34567765  0.34986959     0.36500
C1732       C  0.69145512  0.38313522  0.38771905    -0.21000
C1733       C  0.69296176  0.36999752  0.37480835    -0.21000
C1734       C  0.58425167  0.39053986  0.36642199    -0.21000
C1735       C  0.58573646  0.37707873  0.35384074    -0.21000
C1736       C  0.64051702  0.41000842  0.42092142    -0.22100
C1737       C  0.62241651  0.41133340  0.41732801    -0.22100
C1738       C  0.64920695  0.32852278  0.34585611    -0.22100
C1739       C  0.63097508  0.32935086  0.34293464    -0.22100
C1740       C  0.66631416  0.39589208  0.40536742    -0.17400
C1741       C  0.67169029  0.34901991  0.35975458    -0.17400
C1742       C  0.60756601  0.35248827  0.34838034    -0.17400
C1743       C  0.60243857  0.40041685  0.39271130    -0.17400
H1744       H  0.70244873  0.39110772  0.39310879     0.15500
H1745       H  0.70531968  0.36588981  0.36841106     0.15500
H1746       H  0.57329249  0.40001605  0.36732956     0.15500
H1747       H  0.57616842  0.37431519  0.34315397     0.15500
H1748       H  0.64753228  0.41603135  0.43223830     0.13800
H1749       H  0.61272568  0.41860510  0.42531186     0.13800
H1750       H  0.65793738  0.31757998  0.34200971     0.13800
H1751       H  0.62288062  0.31909744  0.33640312     0.13800
H1752       H  0.65044938  0.36882571  0.38398138     0.27000
H1753       H  0.62107985  0.37081396  0.37860376     0.27000
C1754       C  0.76520667  0.46443211  0.45833397     0.81100
N1755       N  0.77177126  0.47936256  0.45022116    -0.77200
C1756       C  0.78707846  0.48737102  0.45627586     0.83500
N1757       N  0.79587812  0.48036042  0.47069269    -0.77100
C1758       C  0.78943191  0.46543011  0.47899225     0.83600
N1759       N  0.77411859  0.45745227  0.47269509    -0.78900
C1760       C  0.95665455  0.48090715  0.30558528     0.81100
N1761       N  0.94939883  0.47356876  0.29046228    -0.77200
C1762       C  0.95673737  0.45876479  0.28282770     0.83500
N1763       N  0.97159432  0.45124975  0.29041281    -0.77100
C1764       C  0.97883820  0.45832308  0.30573800     0.83600
N1765       N  0.97126350  0.47310827  0.31332007    -0.78900
C1766       C  0.98137474  0.29118451  0.45818683     0.81100
N1767       N  0.97261616  0.29917800  0.47205703    -0.77200
C1768       C  0.95776295  0.29148839  0.47925257     0.83500
N1769       N  0.95151951  0.27580858  0.47227814    -0.77100
C1770       C  0.95994660  0.26768203  0.45830054     0.83600
N1771       N  0.97499545  0.27537348  0.45127036    -0.78900
N1772       N  0.08881959  0.37159396  0.37805197    -0.35700
N1773       N  0.11726432  0.35125124  0.39600052    -0.56300
N1774       N  0.14444739  0.37304219  0.37783206    -0.35700
N1775       N  0.11578280  0.39118083  0.35758554    -0.56300
C1776       C  0.07903988  0.35828218  0.38563981     0.27900
C1777       C  0.07822618  0.37965612  0.36561767     0.27900
C1778       C  0.15485791  0.36001255  0.38508671     0.27900
C1779       C  0.15407615  0.38098851  0.36465142     0.27900
C1780       C  0.10292479  0.34505735  0.40523376     0.36500
C1781       C  0.13206270  0.34596305  0.40517736     0.36500
C1782       C  0.10099051  0.40044690  0.35248546     0.36500
C1783       C  0.13014030  0.40087172  0.35210162     0.36500
C1784       C  0.06193757  0.35801814  0.37807008    -0.21000
C1785       C  0.06142888  0.37148140  0.36545016    -0.21000
C1786       C  0.17141307  0.35988368  0.37660148    -0.21000
C1787       C  0.17092465  0.37311489  0.36372779    -0.21000
C1788       C  0.10862459  0.33567895  0.42027633    -0.22100
C1789       C  0.12708092  0.33631145  0.42028281    -0.22100
C1790       C  0.10599165  0.41603632  0.34365245    -0.22100
C1791       C  0.12444479  0.41628099  0.34336608    -0.22100
C1792       C  0.08479538  0.34689908  0.39976438    -0.17400
C1793       C  0.08303580  0.39462836  0.35491210    -0.17400
C1794       C  0.14828001  0.39545929  0.35375858    -0.17400
C1795       C  0.14998207  0.34847580  0.39937916    -0.17400
H1796       H  0.05091555  0.34909052  0.38133578     0.15500
H1797       H  0.04996178  0.37486453  0.35710660     0.15500
H1798       H  0.18266940  0.35110200  0.37931420     0.15500
H1799       H  0.18173871  0.37648340  0.35465732     0.15500
H1800       H  0.10035223  0.32900097  0.43015726     0.13800
H1801       H  0.13583914  0.33020917  0.43018839     0.13800
H1802       H  0.09726795  0.42615290  0.33793111     0.13800
H1803       H  0.13273035  0.42659740  0.33734809     0.13800
H1804       H  0.10167081  0.37557056  0.38182168     0.27000
H1805       H  0.13176693  0.37679601  0.38212146     0.27000
N1806       N  0.87510931  0.37982184  0.58144573    -0.35700
N1807       N  0.85116877  0.39497253  0.60867030    -0.56300
N1808       N  0.87198003  0.37708452  0.63676923    -0.35700
N1809       N  0.89424132  0.35984230  0.60934360    -0.56300
C1810       C  0.86243239  0.38748555  0.57084280     0.27900
C1811       C  0.88437039  0.36805244  0.57114896     0.27900
C1812       C  0.85778397  0.38288629  0.64649189     0.27900
C1813       C  0.88103855  0.36504409  0.64694229     0.27900
C1814       C  0.84582577  0.40473899  0.59430269     0.36500
C1815       C  0.84352082  0.40255791  0.62328408     0.36500
C1816       C  0.90418375  0.35491610  0.59498633     0.36500
C1817       C  0.90338334  0.35455767  0.62417717     0.36500
C1818       C  0.86387603  0.38076166  0.55350793    -0.21000
C1819       C  0.87764263  0.36847539  0.55371380    -0.21000
C1820       C  0.85790051  0.37446561  0.66309931    -0.21000
C1821       C  0.87263540  0.36339563  0.66346267    -0.21000
C1822       C  0.83456677  0.41847176  0.59976803    -0.22100
C1823       C  0.83319868  0.41717162  0.61809808    -0.22100
C1824       C  0.91961723  0.34620340  0.60070515    -0.22100
C1825       C  0.91912756  0.34598590  0.61917043    -0.22100
C1826       C  0.84996244  0.40078423  0.57619374    -0.17400
C1827       C  0.89914814  0.35742066  0.57677351    -0.17400
C1828       C  0.89710908  0.35611945  0.64207321    -0.17400
C1829       C  0.84514855  0.39609631  0.64114313    -0.17400
H1830       H  0.85582931  0.38430364  0.54188323     0.15500
H1831       H  0.88220634  0.36077064  0.54226489     0.15500
H1832       H  0.84843561  0.37616462  0.67395138     0.15500
H1833       H  0.87663401  0.35511490  0.67470821     0.15500
H1834       H  0.82798229  0.42838560  0.59141829     0.13800
H1835       H  0.82553617  0.42609345  0.62659307     0.13800
H1836       H  0.93007310  0.34047914  0.59243634     0.13800
H1837       H  0.92908146  0.33987956  0.62786151     0.13800
H1838       H  0.87778176  0.38309545  0.59472905     0.27000
H1839       H  0.87586398  0.38175893  0.62429964     0.27000
N1840       N  0.88206513  0.37391084  0.17202714    -0.35700
N1841       N  0.90318581  0.39419430  0.14561770    -0.56300
N1842       N  0.88246574  0.37716087  0.11660199    -0.35700
N1843       N  0.86307906  0.35516070  0.14291439    -0.56300
C1844       C  0.89336363  0.38283600  0.18327324     0.27900
C1845       C  0.87278605  0.36173898  0.18181980     0.27900
C1846       C  0.89493310  0.38603356  0.10683261     0.27900
C1847       C  0.87368085  0.36574895  0.10538034     0.27900
C1848       C  0.90907953  0.40247202  0.16074633     0.36500
C1849       C  0.90988701  0.40357366  0.13163026     0.36500
C1850       C  0.85433518  0.34776264  0.15695973     0.36500
C1851       C  0.85443187  0.34963062  0.12784253     0.36500
C1852       C  0.89102809  0.37644265  0.20060892    -0.21000
C1853       C  0.87808845  0.36318662  0.19969941    -0.21000
C1854       C  0.89379488  0.38040015  0.08905319    -0.21000
C1855       C  0.88039975  0.36768363  0.08813200    -0.21000
C1856       C  0.91976073  0.41711260  0.15632413    -0.22100
C1857       C  0.92028123  0.41779434  0.13790158    -0.22100
C1858       C  0.84012565  0.33728164  0.15073100    -0.22100
C1859       C  0.84013963  0.33853048  0.13232667    -0.22100
C1860       C  0.90542291  0.39687403  0.17852962    -0.17400
C1861       C  0.85927679  0.34975537  0.17529441    -0.17400
C1862       C  0.85960196  0.35378006  0.11004267    -0.17400
C1863       C  0.90706251  0.39937979  0.11326393    -0.17400
H1864       H  0.89785888  0.38091342  0.21272409     0.15500
H1865       H  0.87305385  0.35563049  0.21101675     0.15500
H1866       H  0.90180539  0.38491720  0.07783535     0.15500
H1867       H  0.87618177  0.36060498  0.07608100     0.15500
H1868       H  0.92644194  0.42639852  0.16541663     0.13800
H1869       H  0.92739234  0.42771810  0.13003453     0.13800
H1870       H  0.83071883  0.32949871  0.15858935     0.13800
H1871       H  0.83074555  0.33191845  0.12328421     0.13800
H1872       H  0.88045192  0.37638659  0.15849949     0.27000
H1873       H  0.87964266  0.37922835  0.13001294     0.27000
N1874       N  0.86965655  0.59173275  0.37316120    -0.35700
N1875       N  0.88940519  0.61855317  0.35250647    -0.56300
N1876       N  0.86998675  0.64699584  0.37112290    -0.35700
N1877       N  0.84844693  0.61987926  0.38985204    -0.56300
C1878       C  0.87817718  0.58091805  0.36136027     0.27900
C1879       C  0.85723975  0.58163689  0.38172369     0.27900
C1880       C  0.87826443  0.65652113  0.35808298     0.27900
C1881       C  0.85645588  0.65725427  0.37750576     0.27900
C1882       C  0.89854066  0.60375006  0.34744118     0.36500
C1883       C  0.89889532  0.63283687  0.34658285     0.36500
C1884       C  0.84282543  0.60581918  0.39985012     0.36500
C1885       C  0.84225408  0.63485388  0.39798994     0.36500
C1886       C  0.87116645  0.56364951  0.36256331    -0.21000
C1887       C  0.85801276  0.56409420  0.37543592    -0.21000
C1888       C  0.87010835  0.67316935  0.35640963    -0.21000
C1889       C  0.85630363  0.67359452  0.36858708    -0.21000
C1890       C  0.91381367  0.60864766  0.33801997    -0.22100
C1891       C  0.91405786  0.62709488  0.33750756    -0.22100
C1892       C  0.83274240  0.61186107  0.41423050    -0.22100
C1893       C  0.83242654  0.63025195  0.41309007    -0.22100
C1894       C  0.89281001  0.58587549  0.35033287    -0.17400
C1895       C  0.84597769  0.58756014  0.39577015    -0.17400
C1896       C  0.84459363  0.65256338  0.39154336    -0.17400
C1897       C  0.89332157  0.65088779  0.34803432    -0.17400
H1898       H  0.87529417  0.55182578  0.35518601     0.15500
H1899       H  0.85008660  0.55270527  0.37978488     0.15500
H1900       H  0.87366323  0.68390847  0.34730964     0.15500
H1901       H  0.84717754  0.68470131  0.37060829     0.15500
H1902       H  0.92365977  0.59985431  0.33199355     0.13800
H1903       H  0.92409243  0.63532274  0.33096714     0.13800
H1904       H  0.82624501  0.60386478  0.42445303     0.13800
H1905       H  0.82574312  0.63919986  0.42236816     0.13800
H1906       H  0.87286352  0.60496927  0.37599208     0.27000
H1907       H  0.87389229  0.63456910  0.37599180     0.27000
N1908       N  0.87566204  0.16264954  0.37624657    -0.35700
N1909       N  0.85534840  0.13546424  0.35614723    -0.56300
N1910       N  0.87745366  0.10739060  0.37206187    -0.35700
N1911       N  0.89974947  0.13482570  0.38968880    -0.56300
C1912       C  0.86572121  0.17308148  0.36515763     0.27900
C1913       C  0.88966443  0.17275904  0.38223573     0.27900
C1914       C  0.86884399  0.09779587  0.35910950     0.27900
C1915       C  0.89148469  0.09740849  0.37782215     0.27900
C1916       C  0.84460482  0.14978630  0.35320061     0.36500
C1917       C  0.84624871  0.12084877  0.35013448     0.36500
C1918       C  0.90632422  0.14907889  0.39895838     0.36500
C1919       C  0.90660288  0.12002504  0.39762036     0.36500
C1920       C  0.87336443  0.19009605  0.36428294    -0.21000
C1921       C  0.88847692  0.18988164  0.37504517    -0.21000
C1922       C  0.87746590  0.08144821  0.35677068    -0.21000
C1923       C  0.89164429  0.08114835  0.36869060    -0.21000
C1924       C  0.82862207  0.14427954  0.34520181    -0.22100
C1925       C  0.82966499  0.12594861  0.34324865    -0.22100
C1926       C  0.91758120  0.14333447  0.41268250    -0.22100
C1927       C  0.91773072  0.12490485  0.41185787    -0.22100
C1928       C  0.84963728  0.16787228  0.35626199    -0.17400
C1929       C  0.90302734  0.16721844  0.39463777    -0.17400
C1930       C  0.90375263  0.10222774  0.39158367    -0.17400
C1931       C  0.85315549  0.10314306  0.34969969    -0.17400
H1932       H  0.86860102  0.20148696  0.35662332     0.15500
H1933       H  0.89757223  0.20106598  0.37730717     0.15500
H1934       H  0.87395686  0.07077830  0.34746183     0.15500
H1935       H  0.90109444  0.07024158  0.37034059     0.15500
H1936       H  0.81749693  0.15262924  0.34096674     0.13800
H1937       H  0.81941909  0.11736835  0.33733963     0.13800
H1938       H  0.92496470  0.15156121  0.42224512     0.13800
H1939       H  0.92530378  0.11611484  0.42062726     0.13800
H1940       H  0.87251442  0.14967998  0.38022124     0.27000
H1941       H  0.87354534  0.11966438  0.37732822     0.27000
O1942       O  0.01122127  0.26815298  0.78438981    -0.77600
C1943       C  0.96721171  0.23218726  0.78197859     0.83400
O1944       O  0.03022259  0.21917683  0.74468542    -0.78700
O1945       O  0.96830437  0.22292776  0.72703025    -0.80200
O1946       O  0.97965114  0.28768335  0.73002824    -0.80000
O1947       O  0.01077107  0.28964369  0.76372805    -0.78600
Zn1948     Zn  0.00378229  0.24583692  0.77128403     1.55700
O1949       O  0.95850814  0.26639705  0.73154581    -0.80000
Cd1950     Cd  0.00191562  0.27566027  0.74140320     1.59700
Cd1951     Cd  0.01202569  0.23436835  0.72954630     1.59600
O1952       O  0.02220369  0.27758818  0.72332367    -0.80000
O1953       O  0.99758237  0.24994377  0.74650244    -1.90500
Cd1954     Cd  0.97159541  0.24491309  0.74350327     1.59900
O1955       O  0.02736061  0.25025407  0.71206803    -0.80000
O1956       O  0.95988041  0.23751509  0.76743246    -0.78600
C1957       C  0.03378772  0.22019059  0.76146293     0.83900
C1958       C  0.01405580  0.28428265  0.77963541     0.83600
O1959       O  0.98398572  0.23394280  0.78489821    -0.77600
C1960       C  0.96373763  0.28204068  0.72687602     0.84400
O1961       O  0.02485163  0.22999952  0.77213040    -0.77700
C1962       C  0.03041720  0.26714313  0.71263293     0.84500
C1963       C  0.97825585  0.21390625  0.71649427     0.84800
O1964       O  0.99508278  0.21702431  0.71496312    -0.80100
C1965       C  0.04200845  0.21366248  0.01349738     0.81100
N1966       N  0.02676945  0.20635868  0.02033911    -0.77200
C1967       C  0.01863514  0.21377025  0.03482455     0.83500
N1968       N  0.02596764  0.22857470  0.04267773    -0.77100
C1969       C  0.04120810  0.23611138  0.03605410     0.83600
N1970       N  0.04922966  0.22863093  0.02138652    -0.78900
N1971       N  0.12721756  0.33940889  0.12096480    -0.35700
N1972       N  0.10905734  0.36683808  0.09954136    -0.56300
N1973       N  0.12520464  0.39503131  0.12182206    -0.35700
N1974       N  0.14555092  0.36726356  0.14126541    -0.56300
C1975       C  0.12048295  0.32928489  0.10738325     0.27900
C1976       C  0.13993997  0.32954944  0.12940148     0.27900
C1977       C  0.11848509  0.40482061  0.10803523     0.27900
C1978       C  0.13815397  0.40507355  0.12987836     0.27900
C1979       C  0.09989441  0.35202726  0.09410352     0.36500
C1980       C  0.09925127  0.38113378  0.09415381     0.36500
C1981       C  0.15073251  0.35282031  0.15099727     0.36500
C1982       C  0.15010842  0.38194785  0.15101181     0.36500
C1983       C  0.12894056  0.31270149  0.10722384    -0.21000
C1984       C  0.14123256  0.31286903  0.12112884    -0.21000
C1985       C  0.12701278  0.42141009  0.10754209    -0.21000
C1986       C  0.13943941  0.42156691  0.12130705    -0.21000
C1987       C  0.08430354  0.35693333  0.08511802    -0.22100
C1988       C  0.08386699  0.37537422  0.08520005    -0.22100
C1989       C  0.15869465  0.35833505  0.16697038    -0.22100
C1990       C  0.15826561  0.37679219  0.16700697    -0.22100
C1991       C  0.10601126  0.33418835  0.09606231    -0.17400
C1992       C  0.14956695  0.33481754  0.14500750    -0.17400
C1993       C  0.14864410  0.39988274  0.14490962    -0.17400
C1994       C  0.10462566  0.39928271  0.09613037    -0.17400
H1995       H  0.12632644  0.30151547  0.09823642     0.15500
H1996       H  0.14991450  0.30184124  0.12487495     0.15500
H1997       H  0.12471208  0.43221186  0.09810711     0.15500
H1998       H  0.14852032  0.43254208  0.12447920     0.15500
H1999       H  0.07431897  0.34814563  0.07906883     0.13800
H2000       H  0.07342756  0.38360814  0.07930874     0.13800
H2001       H  0.16444348  0.34994844  0.17736899     0.13800
H2002       H  0.16360393  0.38544875  0.17749191     0.13800
H2003       H  0.12249529  0.35187790  0.12496313     0.27000
H2004       H  0.12076429  0.38245038  0.12591787     0.27000
C2005       C  0.04051038  0.04828782  0.22146506     0.81100
N2006       N  0.02587090  0.05599494  0.21360282    -0.77200
C2007       C  0.01956716  0.04984999  0.19749940     0.83500
N2008       N  0.02802225  0.03595020  0.18928324    -0.77100
C2009       C  0.04267308  0.02816727  0.19690439     0.83600
N2010       N  0.04886812  0.03438414  0.21302870    -0.78900
C2011       C  0.19945416  0.22909841  0.20505293     0.81100
N2012       N  0.19216757  0.22130408  0.21983496    -0.77200
C2013       C  0.20010878  0.20683673  0.22764618     0.83500
N2014       N  0.21541091  0.20003380  0.22040862    -0.77100
C2015       C  0.22275940  0.20754859  0.20548394     0.83600
N2016       N  0.21474230  0.22213574  0.19791358    -0.78900
N2017       N  0.11241081  0.13140933  0.33421543    -0.35700
N2018       N  0.09508700  0.10898592  0.36133864    -0.56300
N2019       N  0.11323891  0.12986410  0.38962815    -0.35700
N2020       N  0.13255275  0.15044116  0.36221658    -0.56300
C2021       C  0.10370650  0.11948465  0.32344088     0.27900
C2022       C  0.12429555  0.14053009  0.32392833     0.27900
C2023       C  0.10680445  0.11591896  0.39931876     0.27900
C2024       C  0.12597895  0.13813390  0.39978588     0.27900
C2025       C  0.08541807  0.10366978  0.34676618     0.36500
C2026       C  0.08682285  0.10203126  0.37591352     0.36500
C2027       C  0.13817523  0.15997983  0.34784971     0.36500
C2028       C  0.13800558  0.15957419  0.37701423     0.36500
C2029       C  0.10997778  0.12122484  0.30600830    -0.21000
C2030       C  0.12296691  0.13441458  0.30632482    -0.21000
C2031       C  0.11544189  0.11548045  0.41591554    -0.21000
C2032       C  0.12743044  0.12955032  0.41625281    -0.21000
C2033       C  0.07103834  0.09310376  0.35210641    -0.22100
C2034       C  0.07191844  0.09207316  0.37054676    -0.22100
C2035       C  0.14745564  0.17517005  0.35356508    -0.22100
C2036       C  0.14730793  0.17493987  0.37204257    -0.22100
C2037       C  0.08975859  0.10756740  0.32866010    -0.17400
C2038       C  0.13569704  0.15480428  0.32966410    -0.17400
C2039       C  0.13597955  0.15353334  0.39488681    -0.17400
C2040       C  0.09295630  0.10391359  0.39391660    -0.17400
H2041       H  0.10559451  0.11383363  0.29420598     0.15500
H2042       H  0.13040833  0.13910971  0.29479057     0.15500
H2043       H  0.11339174  0.10598929  0.42670760     0.15500
H2044       H  0.13629677  0.13297216  0.42735274     0.15500
H2045       H  0.06097360  0.08677076  0.34360150     0.13800
H2046       H  0.06260159  0.08485992  0.37902567     0.13800
H2047       H  0.15374491  0.18531228  0.34529028     0.13800
H2048       H  0.15357380  0.18480793  0.38080878     0.13800
H2049       H  0.10973760  0.13374601  0.34761762     0.27000
H2050       H  0.10861359  0.13405245  0.37716731     0.27000
C2051       C  0.22267077  0.04533696  0.03848653     0.81100
N2052       N  0.21509513  0.03029610  0.04550078    -0.77200
C2053       C  0.19973350  0.02335950  0.03831169     0.83500
N2054       N  0.19183769  0.03167486  0.02410156    -0.77100
C2055       C  0.19933969  0.04665941  0.01690741     0.83600
N2056       N  0.21480339  0.05341767  0.02410410    -0.78900
N2057       N  0.32907113  0.11896064  0.12943090    -0.35700
N2058       N  0.35679472  0.14046120  0.14770160    -0.56300
N2059       N  0.38431746  0.12268769  0.12597180    -0.35700
N2060       N  0.35668405  0.09998231  0.10900766    -0.56300
C2061       C  0.31863857  0.12789243  0.14131682     0.27900
C2062       C  0.31855584  0.10686560  0.12063203     0.27900
C2063       C  0.39477100  0.13165759  0.13800231     0.27900
C2064       C  0.39472630  0.11006436  0.11809020     0.27900
C2065       C  0.34207733  0.14869965  0.15438786     0.36500
C2066       C  0.37120208  0.15054910  0.15258566     0.36500
C2067       C  0.34201295  0.09265460  0.10099178     0.36500
C2068       C  0.37117196  0.09385924  0.10001805     0.36500
C2069       C  0.30117507  0.12133836  0.14005027    -0.21000
C2070       C  0.30110585  0.10818245  0.12700938    -0.21000
C2071       C  0.41211541  0.12489190  0.13747405    -0.21000
C2072       C  0.41207832  0.11128031  0.12496711    -0.21000
C2073       C  0.34723317  0.16400747  0.16381267    -0.22100
C2074       C  0.36564716  0.16519987  0.16263110    -0.22100
C2075       C  0.34726652  0.08157030  0.08695286    -0.22100
C2076       C  0.36571398  0.08233287  0.08634653    -0.22100
C2077       C  0.32408949  0.14243764  0.15257736    -0.17400
C2078       C  0.32397128  0.09525330  0.10645666    -0.17400
C2079       C  0.38929314  0.09776809  0.10450760    -0.17400
C2080       C  0.38935938  0.14618664  0.14902882    -0.17400
H2081       H  0.28953861  0.12581330  0.14746224     0.15500
H2082       H  0.28939861  0.10067416  0.12256794     0.15500
H2083       H  0.42364345  0.12924881  0.14532618     0.15500
H2084       H  0.42357217  0.10317560  0.12138378     0.15500
H2085       H  0.33863676  0.17335349  0.17084001     0.13800
H2086       H  0.37399825  0.17557720  0.16863149     0.13800
H2087       H  0.33873159  0.07359626  0.07816356     0.13800
H2088       H  0.37414529  0.07509424  0.07701060     0.13800
H2089       H  0.34244229  0.12152070  0.12689735     0.27000
H2090       H  0.37109425  0.12560807  0.12271962     0.27000
N2091       N  0.12841080  0.13358754  0.90810306    -0.35700
N2092       N  0.14872531  0.11470920  0.88019072    -0.56300
N2093       N  0.12964979  0.13497952  0.85271865    -0.35700
N2094       N  0.11177831  0.15612076  0.88087084    -0.56300
C2095       C  0.14071044  0.12477269  0.91818485     0.27900
C2096       C  0.12129452  0.14663428  0.91857104     0.27900
C2097       C  0.14243410  0.12693941  0.84263933     0.27900
C2098       C  0.12293722  0.14873365  0.84296996     0.27900
C2099       C  0.15313204  0.10453710  0.89456560     0.36500
C2100       C  0.15388092  0.10538314  0.86549124     0.36500
C2101       C  0.10249756  0.16182742  0.89539742     0.36500
C2102       C  0.10307192  0.16252148  0.86623572     0.36500
C2103       C  0.14126738  0.13216722  0.93532482    -0.21000
C2104       C  0.12900495  0.14593302  0.93557397    -0.21000
C2105       C  0.14375572  0.13560105  0.82623084    -0.21000
C2106       C  0.13147624  0.14934995  0.82643542    -0.21000
C2107       C  0.16127604  0.08877651  0.88901711    -0.22100
C2108       C  0.16168242  0.08926666  0.87059474    -0.22100
C2109       C  0.08797899  0.17212342  0.89000516    -0.22100
C2110       C  0.08823917  0.17244017  0.87154733    -0.22100
C2111       C  0.15085728  0.10971978  0.91266445    -0.17400
C2112       C  0.10746606  0.15861691  0.91348008    -0.17400
C2113       C  0.10882852  0.16030684  0.84822919    -0.17400
C2114       C  0.15249514  0.11162605  0.84759387    -0.17400
H2115       H  0.14960040  0.12803522  0.94654514     0.15500
H2116       H  0.12608108  0.15442559  0.94701554     0.15500
H2117       H  0.15268990  0.13240614  0.81525839     0.15500
H2118       H  0.12916953  0.15877440  0.81562054     0.15500
H2119       H  0.16641053  0.07805594  0.89737766     0.13800
H2120       H  0.16712612  0.07891136  0.86198323     0.13800
H2121       H  0.07821207  0.17870364  0.89848019     0.13800
H2122       H  0.07857163  0.17923348  0.86305925     0.13800
H2123       H  0.12442343  0.13021666  0.89513652     0.27000
H2124       H  0.12505615  0.13076294  0.86514281     0.27000
N2125       N  0.12646899  0.91636960  0.12396421    -0.35700
N2126       N  0.14367414  0.88757021  0.10385100    -0.56300
N2127       N  0.12403837  0.86126720  0.12525946    -0.35700
N2128       N  0.10507911  0.89024711  0.14368459    -0.56300
C2129       C  0.13473548  0.92594200  0.11095648     0.27900
C2130       C  0.11443140  0.92736489  0.13193325     0.27900
C2131       C  0.13044554  0.85081073  0.11184256     0.27900
C2132       C  0.11033401  0.85214682  0.13295273     0.27900
C2133       C  0.15351717  0.90153892  0.09774420     0.36500
C2134       C  0.15192302  0.87247098  0.09816441     0.36500
C2135       C  0.10048830  0.90526270  0.15283446     0.36500
C2136       C  0.09906102  0.87613698  0.15336367     0.36500
C2137       C  0.12798301  0.94330694  0.11082446    -0.21000
C2138       C  0.11518606  0.94418517  0.12400227    -0.21000
C2139       C  0.12085444  0.83480977  0.11115449    -0.21000
C2140       C  0.10811059  0.83569251  0.12438983    -0.21000
C2141       C  0.16796423  0.89528520  0.08786439    -0.22100
C2142       C  0.16696462  0.87683967  0.08815094    -0.22100
C2143       C  0.09131123  0.90069494  0.16831885    -0.22100
C2144       C  0.09048623  0.88223585  0.16870747    -0.22100
C2145       C  0.14892543  0.91981213  0.09993223    -0.17400
C2146       C  0.10354176  0.92301875  0.14684143    -0.17400
C2147       C  0.10015520  0.85793901  0.14787807    -0.17400
C2148       C  0.14523228  0.85490153  0.10073363    -0.17400
H2149       H  0.13196501  0.95436519  0.10231565     0.15500
H2150       H  0.10750490  0.95600146  0.12747886     0.15500
H2151       H  0.12276495  0.82364558  0.10201842     0.15500
H2152       H  0.09827995  0.82536643  0.12731774     0.15500
H2153       H  0.17800067  0.90317317  0.08093027     0.13800
H2154       H  0.17606681  0.86771112  0.08148277     0.13800
H2155       H  0.08569861  0.90971464  0.17823093     0.13800
H2156       H  0.08416251  0.87424557  0.17903802     0.13800
H2157       H  0.12963686  0.90342150  0.12790010     0.27000
H2158       H  0.12935718  0.87347190  0.12957444     0.27000
N2159       N  0.91219669  0.13523322  0.11934547    -0.35700
N2160       N  0.88408676  0.15414369  0.09969457    -0.56300
N2161       N  0.85675841  0.13201319  0.11759267    -0.35700
N2162       N  0.88492249  0.11464250  0.13892030    -0.56300
C2163       C  0.92239581  0.14745766  0.11057164     0.27900
C2164       C  0.92281423  0.12714094  0.13171732     0.27900
C2165       C  0.84627810  0.14498563  0.11029906     0.27900
C2166       C  0.84679221  0.12335465  0.13008154     0.27900
C2167       C  0.89850406  0.16055643  0.09070044     0.36500
C2168       C  0.86927562  0.15977261  0.09075170     0.36500
C2169       C  0.89984741  0.10674471  0.14566744     0.36500
C2170       C  0.87074634  0.10458986  0.14424659     0.36500
C2171       C  0.93983987  0.14689172  0.11729526    -0.21000
C2172       C  0.94008434  0.13416502  0.13063088    -0.21000
C2173       C  0.82940657  0.14436002  0.11815596    -0.21000
C2174       C  0.82966139  0.13061077  0.13040487    -0.21000
C2175       C  0.89281661  0.17040798  0.07595800    -0.22100
C2176       C  0.87433739  0.16983879  0.07593621    -0.22100
C2177       C  0.89508804  0.09175698  0.15562221    -0.22100
C2178       C  0.87667403  0.09037317  0.15469657    -0.22100
C2179       C  0.91667100  0.15862954  0.09622237    -0.17400
C2180       C  0.91769413  0.11305095  0.14344127    -0.17400
C2181       C  0.85248353  0.10872816  0.14081951    -0.17400
C2182       C  0.85129974  0.15716431  0.09652907    -0.17400
H2183       H  0.95133041  0.15466781  0.11295165     0.15500
H2184       H  0.95176971  0.13037091  0.13847267     0.15500
H2185       H  0.81799961  0.15293678  0.11547532     0.15500
H2186       H  0.81848417  0.12663303  0.13874526     0.15500
H2187       H  0.90109337  0.17743707  0.06632764     0.13800
H2188       H  0.86562825  0.17626288  0.06619937     0.13800
H2189       H  0.90395144  0.08276511  0.16284042     0.13800
H2190       H  0.86857999  0.08021258  0.16120712     0.13800
H2191       H  0.89895945  0.13205827  0.11656996     0.27000
H2192       H  0.86968356  0.12871092  0.11373708     0.27000
C2193       C  0.28589346  0.06636912  0.08618223     0.16800
C2194       C  0.27190730  0.05408065  0.08293797    -0.32200
C2195       C  0.26134306  0.05655274  0.06746010     0.21200
C2196       C  0.26465689  0.07049530  0.05559880     0.03400
C2197       C  0.27879512  0.08264411  0.05870777    -0.21900
C2198       C  0.28921101  0.08032179  0.07431351     0.12600
S2199       S  0.29958671  0.06629744  0.10472389    -0.05600
C2200       C  0.30969491  0.08539149  0.09648011    -0.09100
C2201       C  0.30294310  0.09125069  0.08013375    -0.25700
S2202       S  0.24985497  0.07158539  0.03798423    -0.02900
C2203       C  0.23905316  0.05306177  0.04670710    -0.16300
C2204       C  0.24671879  0.04646031  0.06239063    -0.14300
H2205       H  0.26913249  0.04329661  0.09226923     0.21100
H2206       H  0.28131171  0.09366205  0.04957826     0.17100
H2207       H  0.30759938  0.10310769  0.07313339     0.19600
H2208       H  0.24166017  0.03508127  0.06988960     0.13000
C2209       C  0.17344542  0.98169747  0.05352618     0.16800
C2210       C  0.16089989  0.96784577  0.05587076    -0.32200
C2211       C  0.16386610  0.95581929  0.07001505     0.21200
C2212       C  0.17865340  0.95748829  0.08138237     0.03400
C2213       C  0.19128412  0.97128640  0.07895760    -0.21900
C2214       C  0.18829734  0.98333843  0.06479540     0.12600
S2215       S  0.17198613  0.99785826  0.03739123    -0.05600
C2216       C  0.19159142  0.00701012  0.04589991    -0.09100
C2217       C  0.19880597  0.99783455  0.06045497    -0.25700
S2218       S  0.17922908  0.94214735  0.09839743    -0.02900
C2219       C  0.15936476  0.93348209  0.09006311    -0.16300
C2220       C  0.15281872  0.94193092  0.07484019    -0.14300
H2221       H  0.14920465  0.96663674  0.04719252     0.21100
H2222       H  0.20276910  0.97273306  0.08787940     0.17100
H2223       H  0.21099893  0.00164040  0.06757023     0.19600
H2224       H  0.14022785  0.93858533  0.06821269     0.13000
C2225       C  0.17980457  0.08825912  0.94953825     0.16800
C2226       C  0.19328608  0.08387592  0.96201361    -0.32200
C2227       C  0.18857967  0.07258210  0.97630804     0.21200
C2228       C  0.17127104  0.06581806  0.97802431     0.03400
C2229       C  0.15777956  0.07025194  0.96560017    -0.21900
C2230       C  0.16244928  0.08163033  0.95138886     0.12600
S2231       S  0.18260923  0.10226287  0.93161816    -0.05600
C2232       C  0.16014398  0.09926280  0.92676347    -0.09100
C2233       C  0.15108599  0.08791111  0.93831510    -0.25700
S2234       S  0.16836172  0.05201903  0.99605506    -0.02900
C2235       C  0.19069104  0.05545129  0.00142248    -0.16300
C2236       C  0.19975862  0.06680517  0.98980930    -0.14300
H2237       H  0.20681154  0.08913514  0.96070826     0.21100
H2238       H  0.14421338  0.06512384  0.96699595     0.17100
H2239       H  0.13685258  0.08486878  0.93745021     0.19600
H2240       H  0.21385300  0.07036690  0.99099386     0.13000
C2241       C  0.15330309  0.18282774  0.29013717     0.16800
C2242       C  0.15528625  0.19448773  0.27549623    -0.32200
C2243       C  0.17099628  0.19307471  0.26523460     0.21200
C2244       C  0.18409526  0.18047938  0.26924553     0.03400
C2245       C  0.18207293  0.16872695  0.28384402    -0.21900
C2246       C  0.16642981  0.17026642  0.29422675     0.12600
S2247       S  0.13508705  0.18228899  0.30402087    -0.05600
C2248       C  0.14526407  0.16503190  0.31552349    -0.09100
C2249       C  0.16188648  0.15999888  0.30884763    -0.25700
S2250       S  0.20212550  0.18092179  0.25508328    -0.02900
C2251       C  0.19196323  0.19832045  0.24363591    -0.16300
C2252       C  0.17543534  0.20335567  0.25060621    -0.14300
H2253       H  0.14501957  0.20425370  0.27224630     0.21100
H2254       H  0.19225529  0.15883930  0.28698478     0.17100
H2255       H  0.16990490  0.14906480  0.31408992     0.19600
H2256       H  0.16704462  0.21393457  0.24520885     0.13000
C2257       C  0.26310175  0.19042162  0.17794992     0.16800
C2258       C  0.27618575  0.18716816  0.16483077    -0.32200
C2259       C  0.28787117  0.17262788  0.16748051     0.21200
C2260       C  0.28665400  0.16180550  0.18257239     0.03400
C2261       C  0.27360048  0.16511007  0.19574360    -0.21900
C2262       C  0.26184957  0.17963191  0.19304754     0.12600
S2263       S  0.24738522  0.20710678  0.17694728    -0.05600
C2264       C  0.23888236  0.19949924  0.19707329    -0.09100
C2265       C  0.24800583  0.18478792  0.20408494    -0.25700
S2266       S  0.30182484  0.14455477  0.18302415    -0.02900
C2267       C  0.30984005  0.15203353  0.16267994    -0.16300
C2268       C  0.30117318  0.16708787  0.15602734    -0.14300
H2269       H  0.27709643  0.19550424  0.15296577     0.21100
H2270       H  0.27252425  0.15661675  0.20748141     0.17100
H2271       H  0.24455063  0.17805912  0.21648410     0.19600
H2272       H  0.30428385  0.17343165  0.14333767     0.13000
C2273       C  0.06096044  0.09101978  0.28862926     0.16800
C2274       C  0.04937357  0.08953265  0.27370118    -0.32200
C2275       C  0.05106140  0.07431622  0.26260756     0.21200
C2276       C  0.06357059  0.06105724  0.26634929     0.03400
C2277       C  0.07500665  0.06243817  0.28138548    -0.21900
C2278       C  0.07348598  0.07775186  0.29233968     0.12600
S2279       S  0.06188403  0.10898953  0.30302018    -0.05600
C2280       C  0.07932375  0.09852146  0.31410793    -0.09100
C2281       C  0.08404700  0.08197390  0.30699132    -0.25700
S2282       S  0.06410236  0.04408559  0.25081914    -0.02900
C2283       C  0.04742797  0.05501959  0.23896115    -0.16300
C2284       C  0.04166649  0.07086521  0.24698199    -0.14300
H2285       H  0.03976992  0.09999727  0.27061470     0.21100
H2286       H  0.08496270  0.05222359  0.28417763     0.17100
H2287       H  0.09503632  0.07380851  0.31191221     0.19600
H2288       H  0.03149502  0.07965902  0.24142390     0.13000
C2289       C  0.98024557  0.06747982  0.16885545     0.16800
C2290       C  0.96767034  0.07093566  0.15522263    -0.32200
C2291       C  0.95521288  0.08467937  0.15815529     0.21200
C2292       C  0.95520125  0.09459410  0.17398375     0.03400
C2293       C  0.96785856  0.09116973  0.18763569    -0.21900
C2294       C  0.98038075  0.07739229  0.18467505     0.12600
S2295       S  0.99649936  0.05143905  0.16770287    -0.05600
C2296       C  0.00380690  0.05818232  0.18871417    -0.09100
C2297       C  0.99389616  0.07210217  0.19616585    -0.25700
S2298       S  0.93893307  0.11076928  0.17479318    -0.02900
C2299       C  0.93219664  0.10399187  0.15362843    -0.16300
C2300       C  0.94206995  0.09005779  0.14640380    -0.14300
H2301       H  0.96763197  0.06326569  0.14282529     0.21100
H2302       H  0.96798189  0.09893106  0.19997408     0.17100
H2303       H  0.99651590  0.07811315  0.20920348     0.19600
H2304       H  0.93980646  0.08431110  0.13318423     0.13000
C2305       C  0.08800353  0.96422345  0.17378587     0.16800
C2306       C  0.08650568  0.97907261  0.18535790    -0.32200
C2307       C  0.07146363  0.99024357  0.18326216     0.21200
C2308       C  0.05863579  0.98692617  0.17003847     0.03400
C2309       C  0.06010755  0.97206731  0.15848961    -0.21900
C2310       C  0.07499004  0.96075097  0.16077113     0.12600
S2311       S  0.10538936  0.94925730  0.17393611    -0.05600
C2312       C  0.09485624  0.93808271  0.15649526    -0.09100
C2313       C  0.07881271  0.94568274  0.15084890    -0.25700
S2314       S  0.04138176  0.00199335  0.16970441    -0.02900
C2315       C  0.05126073  0.01269305  0.18788707    -0.16300
C2316       C  0.06730995  0.00501275  0.19355650    -0.14300
H2317       H  0.09658738  0.98175745  0.19559801     0.21100
H2318       H  0.05003501  0.96938816  0.14823699     0.17100
H2319       H  0.07070990  0.94072644  0.13973191     0.19600
H2320       H  0.07537917  0.00981737  0.20476355     0.13000
C2321       C  0.17148984  0.26933648  0.18829635     0.16800
C2322       C  0.15825917  0.28236405  0.18508348    -0.32200
C2323       C  0.16233030  0.29622453  0.17299816     0.21200
C2324       C  0.17889831  0.29716883  0.16458413     0.03400
C2325       C  0.19209866  0.28410623  0.16776012    -0.21900
C2326       C  0.18797118  0.27014729  0.17972593     0.12600
S2327       S  0.16922878  0.25152588  0.20256027    -0.05600
C2328       C  0.19070618  0.24498328  0.19690169    -0.09100
C2329       C  0.19899672  0.25613541  0.18448819    -0.25700
S2330       S  0.18103077  0.31472542  0.14997005    -0.02900
C2331       C  0.15931681  0.32070025  0.15509241    -0.16300
C2332       C  0.15101080  0.30972140  0.16757802    -0.14300
H2333       H  0.14530852  0.28165206  0.19161916     0.21100
H2334       H  0.20496968  0.28470503  0.16106250     0.17100
H2335       H  0.21248306  0.25425941  0.17942908     0.19600
H2336       H  0.13723974  0.31121755  0.17196399     0.13000
C2337       C  0.05857186  0.27411787  0.06686092     0.16800
C2338       C  0.06190934  0.28614215  0.08107408    -0.32200
C2339       C  0.07654683  0.29795778  0.07942255     0.21200
C2340       C  0.08733049  0.29785744  0.06426906     0.03400
C2341       C  0.08402302  0.28578447  0.05011873    -0.21900
C2342       C  0.06944340  0.27391433  0.05178658     0.12600
S2343       S  0.04163972  0.25859195  0.06632747    -0.05600
C2344       C  0.04939853  0.25154475  0.04565478    -0.09100
C2345       C  0.06426376  0.26098765  0.03956991    -0.25700
S2346       S  0.10437536  0.31329471  0.06473375    -0.02900
C2347       C  0.09693769  0.31986379  0.08556744    -0.16300
C2348       C  0.08206050  0.31057591  0.09177275    -0.14300
H2349       H  0.05351011  0.28623957  0.09291130     0.21100
H2350       H  0.09249292  0.28561180  0.03833655     0.17100
H2351       H  0.07104606  0.25840880  0.02699160     0.19600
H2352       H  0.07568102  0.31296941  0.10459920     0.13000
C2353       C  0.08853225  0.18886462  0.95096132     0.16800
C2354       C  0.08517575  0.20243846  0.96365712    -0.32200
C2355       C  0.07087771  0.19985296  0.97563208     0.21200
C2356       C  0.06039181  0.18441268  0.97496270     0.03400
C2357       C  0.06376771  0.17080976  0.96232107    -0.21900
C2358       C  0.07805649  0.17340534  0.95035798     0.12600
S2359       S  0.10530077  0.18942508  0.93533728    -0.05600
C2360       C  0.09810527  0.16864690  0.92792613    -0.09100
C2361       C  0.08352766  0.16171348  0.93716869    -0.25700
S2362       S  0.04368546  0.18381210  0.99056127    -0.02900
C2363       C  0.05085037  0.20459605  0.99819120    -0.16300
C2364       C  0.06550334  0.21148498  0.98897034    -0.14300
H2365       H  0.09337039  0.21448951  0.96418578     0.21100
H2366       H  0.05561172  0.15872718  0.96183862     0.17100
H2367       H  0.07738445  0.14876479  0.93443479     0.19600
H2368       H  0.07186897  0.22429606  0.99184566     0.13000
C2369       C  0.95442980  0.18933243  0.07875400     0.16800
C2370       C  0.96806260  0.20223888  0.07665712    -0.32200
C2371       C  0.97956292  0.20038686  0.06188486     0.21200
C2372       C  0.97749455  0.18639007  0.04968401     0.03400
C2373       C  0.96390280  0.17348750  0.05179165    -0.21900
C2374       C  0.95249517  0.17524819  0.06661826     0.12600
S2375       S  0.93943944  0.18885415  0.09605906    -0.05600
C2376       C  0.93063163  0.16938259  0.08692754    -0.09100
C2377       C  0.93885928  0.16372760  0.07126189    -0.25700
S2378       S  0.99290111  0.18631743  0.03280234    -0.02900
C2379       C  0.00240566  0.20526873  0.04231989    -0.16300
C2380       C  0.99385944  0.21129262  0.05773127    -0.14300
H2381       H  0.96975397  0.21312313  0.08622480     0.21100
H2382       H  0.96241070  0.16243754  0.04238500     0.17100
H2383       H  0.93531874  0.15160104  0.06395069     0.19600
H2384       H  0.99801197  0.22287500  0.06559955     0.13000
C2385       C  0.06616902  0.18808387  0.78443051     0.16800
C2386       C  0.07380160  0.17305927  0.79278560    -0.32200
C2387       C  0.08423362  0.17606662  0.80831113     0.21200
C2388       C  0.08747364  0.19326431  0.81485729     0.03400
C2389       C  0.08019888  0.20825791  0.80630358    -0.21900
C2390       C  0.06929765  0.20521010  0.79120331     0.12600
S2391       S  0.05101776  0.18727223  0.76700788    -0.05600
C2392       C  0.04867343  0.21013977  0.76934821    -0.09100
C2393       C  0.05937502  0.21787535  0.78254725    -0.25700
S2394       S  0.09964067  0.19412026  0.83433577    -0.02900
C2395       C  0.09994715  0.17100262  0.83398627    -0.16300
C2396       C  0.09145564  0.16320005  0.81923914    -0.14300
H2397       H  0.07100446  0.15958916  0.78794809     0.21100
H2398       H  0.08222773  0.22165779  0.81169364     0.17100
H2399       H  0.05896549  0.23192135  0.78641219     0.19600
H2400       H  0.09033444  0.14886558  0.81690425     0.13000
C2401       C  0.92822655  0.30549632  0.69782471     0.16800
C2402       C  0.91374347  0.30940325  0.68639676    -0.32200
C2403       C  0.91448411  0.32544512  0.67663014     0.21200
C2404       C  0.92878575  0.33735335  0.67847136     0.03400
C2405       C  0.94317921  0.33356525  0.69012093    -0.21900
C2406       C  0.94263109  0.31728010  0.69957967     0.12600
S2407       S  0.93053007  0.28597706  0.70955564    -0.05600
C2408       C  0.95126057  0.29359555  0.71675959    -0.09100
C2409       C  0.95588242  0.31055044  0.71051463    -0.25700
S2410       S  0.92739577  0.35578445  0.66488981    -0.02900
C2411       C  0.90751391  0.34713660  0.65649729    -0.16300
C2412       C  0.90224328  0.33098491  0.66401765    -0.14300
H2413       H  0.90265155  0.30005814  0.68474015     0.21100
H2414       H  0.95454862  0.34263622  0.69133742     0.17100
H2415       H  0.96855738  0.31727746  0.71323745     0.19600
H2416       H  0.89021043  0.32360914  0.66023659     0.13000
C2417       C  0.92993253  0.30778464  0.51958989     0.16800
C2418       C  0.91812377  0.30955416  0.53413163    -0.32200
C2419       C  0.91769996  0.32616578  0.54313406     0.21200
C2420       C  0.92844928  0.34043236  0.53778772     0.03400
C2421       C  0.94036074  0.33860358  0.52334786    -0.21900
C2422       C  0.94089624  0.32195232  0.51445041     0.12600
S2423       S  0.93224792  0.28885779  0.50675679    -0.05600
C2424       C  0.94835850  0.30003790  0.49446084    -0.09100
C2425       C  0.95158528  0.31755759  0.50011753    -0.25700
S2426       S  0.92548480  0.35968783  0.54999230    -0.02900
C2427       C  0.90981033  0.34834099  0.56260472    -0.16300
C2428       C  0.90701176  0.33061099  0.55746378    -0.14300
H2429       H  0.90958392  0.29849180  0.53819826     0.21100
H2430       H  0.94878634  0.34971176  0.51917302     0.17100
H2431       H  0.96112847  0.32665196  0.49397609     0.19600
H2432       H  0.89739863  0.32162658  0.56364984     0.13000
C2433       C  0.93165062  0.22781290  0.44142013     0.16800
C2434       C  0.91749969  0.21593906  0.43766794    -0.32200
C2435       C  0.91989236  0.20342509  0.42385685     0.21200
C2436       C  0.93588782  0.20237456  0.41442592     0.03400
C2437       C  0.95019314  0.21426051  0.41827479    -0.21900
C2438       C  0.94759046  0.22719256  0.43186298     0.12600
S2439       S  0.93062694  0.24451158  0.45699357    -0.05600
C2440       C  0.95176001  0.25128351  0.45045831    -0.09100
C2441       C  0.95928288  0.24073138  0.43699900    -0.25700
S2442       S  0.93581691  0.18620071  0.39798926    -0.02900
C2443       C  0.91394647  0.18123330  0.40379839    -0.16300
C2444       C  0.90725937  0.19140613  0.41778179    -0.14300
H2445       H  0.90495474  0.21672091  0.44493755     0.21100
H2446       H  0.96259359  0.21372337  0.41074974     0.17100
H2447       H  0.97234116  0.24305530  0.43106719     0.19600
H2448       H  0.89380920  0.19010110  0.42313283     0.13000
C2449       C  0.02079882  0.32053197  0.44243040     0.16800
C2450       C  0.03293958  0.33457641  0.43925991    -0.32200
C2451       C  0.04683495  0.33145078  0.42704701     0.21200
C2452       C  0.04876219  0.31497079  0.41851455     0.03400
C2453       C  0.03652805  0.30090526  0.42163723    -0.21900
C2454       C  0.02242782  0.30412973  0.43369683     0.12600
S2455       S  0.00298861  0.32186257  0.45663511    -0.05600
C2456       C  0.99734967  0.30016195  0.45061286    -0.09100
C2457       C  0.00890708  0.29236675  0.43826741    -0.25700
S2458       S  0.06642020  0.31408047  0.40391830    -0.02900
C2459       C  0.07092208  0.33621404  0.40917673    -0.16300
C2460       C  0.05949000  0.34370432  0.42170468    -0.14300
H2461       H  0.03149243  0.34746619  0.44588376     0.21100
H2462       H  0.03781379  0.28810711  0.41480894     0.17100
H2463       H  0.00751293  0.27886356  0.43295761     0.19600
H2464       H  0.06017538  0.35751614  0.42629678     0.13000
C2465       C  0.94033712  0.52313383  0.33043035     0.16800
C2466       C  0.93723995  0.53725682  0.34251492    -0.32200
C2467       C  0.92300363  0.54895859  0.33863993     0.21200
C2468       C  0.91242239  0.54683663  0.32333345     0.03400
C2469       C  0.91558967  0.53279637  0.31122151    -0.21900
C2470       C  0.92969231  0.52099404  0.31519383     0.12600
S2471       S  0.95656756  0.50711838  0.33291596    -0.05600
C2472       C  0.94878408  0.49734107  0.31330078    -0.09100
C2473       C  0.93448250  0.50626192  0.30531977    -0.25700
S2474       S  0.89545790  0.56208633  0.32129486    -0.02900
C2475       C  0.90267900  0.57130180  0.34130870    -0.16300
C2476       C  0.91744164  0.56304991  0.34904397    -0.14300
H2477       H  0.94538668  0.53889587  0.35453299     0.21100
H2478       H  0.90724561  0.53097760  0.29936245     0.17100
H2479       H  0.92783528  0.50212512  0.29297609     0.19600
H2480       H  0.92345568  0.56692686  0.36178212     0.13000
C2481       C  0.93532838  0.41629970  0.21610671     0.16800
C2482       C  0.94868546  0.41967169  0.22908679    -0.32200
C2483       C  0.94522678  0.43290911  0.24206615     0.21200
C2484       C  0.92934172  0.44261563  0.24189291     0.03400
C2485       C  0.91610300  0.43943292  0.22877330    -0.21900
C2486       C  0.91940050  0.42595966  0.21603599     0.12600
S2487       S  0.93643918  0.40002681  0.19991549    -0.05600
C2488       C  0.91515517  0.40619368  0.19323651    -0.09100
C2489       C  0.90776791  0.42024431  0.20285291    -0.25700
S2490       S  0.92750552  0.45779647  0.25898512    -0.02900
C2491       C  0.94833910  0.45096180  0.26657030    -0.16300
C2492       C  0.95618765  0.43761691  0.25623678    -0.14300
H2493       H  0.96104424  0.41202602  0.22931293     0.21100
H2494       H  0.90360137  0.44684858  0.22874693     0.17100
H2495       H  0.89449230  0.42571787  0.20049099     0.19600
H2496       H  0.96917182  0.43164255  0.25897309     0.13000
C2497       C  0.01712237  0.43823548  0.33411917     0.16800
C2498       C  0.02849672  0.43232546  0.34797080    -0.32200
C2499       C  0.04330927  0.42174917  0.34323627     0.21200
C2500       C  0.04687129  0.41747148  0.32545452     0.03400
C2501       C  0.03541731  0.42330778  0.31157955    -0.21900
C2502       C  0.02037687  0.43360849  0.31636546     0.12600
S2503       S  0.99839695  0.45108528  0.33716078    -0.05600
C2504       C  0.99459356  0.44986664  0.31431915    -0.09100
C2505       C  0.00736385  0.44010298  0.30494080    -0.25700
S2506       S  0.06559003  0.40447930  0.32259919    -0.02900
C2507       C  0.06840820  0.40460114  0.34563230    -0.16300
C2508       C  0.05556579  0.41433210  0.35486310    -0.14300
H2509       H  0.02581962  0.43568743  0.36186932     0.21100
H2510       H  0.03799910  0.41980778  0.29769671     0.17100
H2511       H  0.00717925  0.43796829  0.29053299     0.19600
H2512       H  0.05518791  0.41576479  0.36934645     0.13000
C2513       C  0.81996607  0.44942952  0.51773389     0.16800
C2514       C  0.83391085  0.44655209  0.53021007    -0.32200
C2515       C  0.83267564  0.43135453  0.54130206     0.21200
C2516       C  0.81808711  0.41970928  0.54017630     0.03400
C2517       C  0.80409460  0.42271022  0.52787240    -0.21900
C2518       C  0.80543958  0.43773104  0.51664820     0.12600
S2519       S  0.81926032  0.46652532  0.50244506    -0.05600
C2520       C  0.79924406  0.45769996  0.49443530    -0.09100
C2521       C  0.79349889  0.44243328  0.50338963    -0.25700
S2522       S  0.81914187  0.40186024  0.55448558    -0.02900
C2523       C  0.83949346  0.41006386  0.56200797    -0.16300
C2524       C  0.84506365  0.42586579  0.55389310    -0.14300
H2525       H  0.84535129  0.45557286  0.53101879     0.21100
H2526       H  0.79277709  0.41355014  0.52688142     0.17100
H2527       H  0.78136414  0.43496097  0.50017340     0.19600
H2528       H  0.85749982  0.43285772  0.55701368     0.13000
C2529       C  0.80094462  0.52713846  0.42658624     0.16800
C2530       C  0.80259665  0.54009918  0.41307517    -0.32200
C2531       C  0.81728134  0.55192058  0.41412137     0.21200
C2532       C  0.82975560  0.55094532  0.42804044     0.03400
C2533       C  0.82805098  0.53802687  0.44160078    -0.21900
C2534       C  0.81340298  0.52613511  0.44050017     0.12600
S2535       S  0.78431139  0.51133633  0.42748049    -0.05600
C2536       C  0.79425389  0.50318642  0.44679166    -0.09100
C2537       C  0.80963658  0.51240510  0.45215460    -0.25700
S2538       S  0.84697201  0.56609685  0.42654325    -0.02900
C2539       C  0.83725175  0.57372797  0.40697457    -0.16300
C2540       C  0.82148772  0.56506427  0.40199042    -0.14300
H2541       H  0.79297137  0.54080315  0.40211392     0.21100
H2542       H  0.83783593  0.53713628  0.45240431     0.17100
H2543       H  0.81772124  0.50914438  0.46385010     0.19600
H2544       H  0.81383427  0.56794542  0.38991183     0.13000
C2545       C  0.70358943  0.41516421  0.43575715     0.16800
C2546       C  0.71819222  0.41775156  0.44755687    -0.32200
C2547       C  0.72763261  0.43409893  0.44649884     0.21200
C2548       C  0.72262078  0.44729537  0.43435328     0.03400
C2549       C  0.70797664  0.44477513  0.42269791    -0.21900
C2550       C  0.69866388  0.42843182  0.42364375     0.12600
S2551       S  0.69114542  0.39586528  0.43398616    -0.05600
C2552       C  0.67931270  0.40587020  0.41676668    -0.09100
C2553       C  0.68468322  0.42319565  0.41276275    -0.25700
S2554       S  0.73606880  0.46587005  0.43456250    -0.02900
C2555       C  0.74877626  0.45581208  0.45112663    -0.16300
C2556       C  0.74263915  0.43895238  0.45626505    -0.14300
H2557       H  0.72225616  0.40734167  0.45685575     0.21100
H2558       H  0.70423800  0.45497487  0.41303336     0.17100
H2559       H  0.67915019  0.43119001  0.40193203     0.19600
H2560       H  0.74904880  0.43053759  0.46625963     0.13000
C2561       C  0.81948292  0.22814050  0.31091745     0.16800
C2562       C  0.82953587  0.21226644  0.31127255    -0.32200
C2563       C  0.83002205  0.20257470  0.32737912     0.21200
C2564       C  0.82083566  0.20835351  0.34249309     0.03400
C2565       C  0.81038404  0.22401958  0.34199393    -0.21900
C2566       C  0.80997895  0.23379047  0.32587022     0.12600
S2567       S  0.81814287  0.24229356  0.29298247    -0.05600
C2568       C  0.80439316  0.25594336  0.30559243    -0.09100
C2569       C  0.80113474  0.24968794  0.32284177    -0.25700
S2570       S  0.82449756  0.19551598  0.36118042    -0.02900
C2571       C  0.83838983  0.18223301  0.34838225    -0.16300
C2572       C  0.83995312  0.18745753  0.33063294    -0.14300
H2573       H  0.83704419  0.20790650  0.29963258     0.21100
H2574       H  0.80328439  0.22864796  0.35378624     0.17100
H2575       H  0.79295231  0.25651841  0.33270304     0.19600
H2576       H  0.84858696  0.18101027  0.32090166     0.13000
C2577       C  0.71293505  0.32169324  0.34505929     0.16800
C2578       C  0.72788597  0.31028691  0.34387778    -0.32200
C2579       C  0.73826007  0.31106304  0.32818435     0.21200
C2580       C  0.73403523  0.32284155  0.31439493     0.03400
C2581       C  0.71909110  0.33421131  0.31555046    -0.21900
C2582       C  0.70860793  0.33327455  0.33112386     0.12600
S2583       S  0.69880524  0.32299779  0.36306253    -0.05600
C2584       C  0.68686331  0.33912364  0.35157311    -0.09100
C2585       C  0.69358458  0.34325993  0.33475539    -0.25700
S2586       S  0.74822542  0.32182659  0.29650787    -0.02900
C2587       C  0.75991253  0.30512984  0.30751713    -0.16300
C2588       C  0.75309911  0.30081236  0.32430539    -0.14300
H2589       H  0.73125744  0.30118034  0.35469923     0.21100
H2590       H  0.71574560  0.34334933  0.30474437     0.17100
H2591       H  0.68799676  0.35333889  0.32588438     0.19600
H2592       H  0.75861823  0.29066155  0.33313550     0.13000
C2593       C  0.80986901  0.31930681  0.23221003     0.16800
C2594       C  0.81199724  0.33185577  0.21837963    -0.32200
C2595       C  0.82765992  0.33086096  0.20805840     0.21200
C2596       C  0.84041964  0.31761728  0.21099528     0.03400
C2597       C  0.83801238  0.30470617  0.22448744    -0.21900
C2598       C  0.82256964  0.30602466  0.23516704     0.12600
S2599       S  0.79285354  0.31961255  0.24746992    -0.05600
C2600       C  0.80296872  0.30173276  0.25812577    -0.09100
C2601       C  0.81857873  0.29575352  0.24992958    -0.25700
S2602       S  0.85912115  0.31954652  0.19789094    -0.02900
C2603       C  0.84970059  0.33850685  0.18859794    -0.16300
C2604       C  0.83286882  0.34282602  0.19511429    -0.14300
H2605       H  0.80225493  0.34243406  0.21627930     0.21100
H2606       H  0.84810401  0.29456532  0.22705375     0.17100
H2607       H  0.82692269  0.28492962  0.25489035     0.19600
H2608       H  0.82515295  0.35442569  0.19097089     0.13000
C2609       C  0.07901333  0.32123281  0.67813943     0.16800
C2610       C  0.07189352  0.31446177  0.69401909    -0.32200
C2611       C  0.06231970  0.29831500  0.69298516     0.21200
C2612       C  0.06035457  0.28881490  0.67702446     0.03400
C2613       C  0.06760072  0.29559673  0.66101970    -0.21900
C2614       C  0.07663619  0.31222061  0.66194025     0.12600
S2615       S  0.09013438  0.34116712  0.67669089    -0.05600
C2616       C  0.09081154  0.33796931  0.65379244    -0.09100
C2617       C  0.08337295  0.32184983  0.64782066    -0.25700
S2618       S  0.04724314  0.26988149  0.67880184    -0.02900
C2619       C  0.04391843  0.27549683  0.70102570    -0.16300
C2620       C  0.05299658  0.29076222  0.70668986    -0.14300
H2621       H  0.07317802  0.32182020  0.70655340     0.21100
H2622       H  0.06567496  0.28862294  0.64835122     0.17100
H2623       H  0.08270169  0.31761281  0.63389052     0.19600
H2624       H  0.05207028  0.29657217  0.72002839     0.13000
C2625       C  0.97375853  0.55361442  0.67142546     0.16800
C2626       C  0.96010956  0.55610165  0.65867812    -0.32200
C2627       C  0.95039165  0.57212817  0.65947111     0.21200
C2628       C  0.95411832  0.58520855  0.67232201     0.03400
C2629       C  0.96774168  0.58266201  0.68517710    -0.21900
C2630       C  0.97742964  0.56653868  0.68443654     0.12600
S2631       S  0.98723264  0.53522485  0.67235883    -0.05600
C2632       C  0.99790659  0.54488405  0.69061404    -0.09100
C2633       C  0.99128744  0.56156241  0.69558729    -0.25700
S2634       S  0.94116911  0.60403216  0.67050535    -0.02900
C2635       C  0.93066850  0.59400722  0.65238330    -0.16300
C2636       C  0.93685866  0.57707613  0.64803212    -0.14300
H2637       H  0.95727769  0.54603198  0.64849153     0.21100
H2638       H  0.97074449  0.59283787  0.69520558     0.17100
H2639       H  0.99650095  0.56970488  0.70654695     0.19600
H2640       H  0.93197562  0.56905660  0.63683340     0.13000
C2641       C  0.05083240  0.47428652  0.66922142     0.16800
C2642       C  0.05298925  0.46152473  0.65557200    -0.32200
C2643       C  0.06858042  0.45107346  0.65596116     0.21200
C2644       C  0.08141774  0.45307242  0.66945590     0.03400
C2645       C  0.07916320  0.46574501  0.68324935    -0.21900
C2646       C  0.06360203  0.47633814  0.68276003     0.12600
S2647       S  0.03323953  0.48876686  0.67052207    -0.05600
C2648       C  0.04313755  0.49781191  0.68951054    -0.09100
C2649       C  0.05920370  0.48980353  0.69455612    -0.25700
S2650       S  0.09952495  0.43920530  0.66731582    -0.02900
C2651       C  0.08966225  0.43081210  0.64802894    -0.16300
C2652       C  0.07323914  0.43827963  0.64361570    -0.14300
H2653       H  0.04306771  0.45999955  0.64494731     0.21100
H2654       H  0.08919458  0.46743642  0.69374399     0.17100
H2655       H  0.06740237  0.49386795  0.70596060     0.19600
H2656       H  0.06518587  0.43450222  0.63201341     0.13000
C2657       C  0.06551553  0.55393697  0.75973903     0.16800
C2658       C  0.07973344  0.55879947  0.77118647    -0.32200
C2659       C  0.07629714  0.57170299  0.78444260     0.21200
C2660       C  0.05936550  0.57919559  0.78649308     0.03400
C2661       C  0.04513253  0.57431426  0.77503992    -0.21900
C2662       C  0.04867604  0.56167535  0.76152104     0.12600
S2663       S  0.06715862  0.53898120  0.74244414    -0.05600
C2664       C  0.04503416  0.54348329  0.73727286    -0.09100
C2665       C  0.03685575  0.55578294  0.74858057    -0.25700
S2666       S  0.05801001  0.59477225  0.80330881    -0.02900
C2667       C  0.08052779  0.59132489  0.80728490    -0.16300
C2668       C  0.08855193  0.57868204  0.79635075    -0.14300
H2669       H  0.09297209  0.55300786  0.76962977     0.21100
H2670       H  0.03197484  0.58033328  0.77640226     0.17100
H2671       H  0.02307556  0.56028618  0.74729703     0.19600
H2672       H  0.10260794  0.57497070  0.79701752     0.13000
C2673       C  0.26834410  0.55090913  0.56406755     0.16800
C2674       C  0.28111716  0.55329459  0.57779962    -0.32200
C2675       C  0.29252077  0.56828127  0.57678133     0.21200
C2676       C  0.29154620  0.58019962  0.56250618     0.03400
C2677       C  0.27885649  0.57770682  0.54864440    -0.21900
C2678       C  0.26715607  0.56289878  0.54987975     0.12600
S2679       S  0.25257669  0.53422677  0.56360202    -0.05600
C2680       C  0.24392039  0.54364518  0.54427863    -0.09100
C2681       C  0.25316130  0.55876775  0.53841141    -0.25700
S2682       S  0.30631299  0.59782132  0.56406594    -0.02900
C2683       C  0.31364477  0.58908577  0.58422355    -0.16300
C2684       C  0.30517768  0.57333136  0.58930626    -0.14300
H2685       H  0.28182403  0.54411134  0.58904274     0.21100
H2686       H  0.27784476  0.58714170  0.53763673     0.17100
H2687       H  0.24955162  0.56658546  0.52668575     0.19600
H2688       H  0.30798124  0.56614200  0.60163724     0.13000
C2689       C  0.15635505  0.45291431  0.55801291     0.16800
C2690       C  0.15776957  0.46858172  0.54770008    -0.32200
C2691       C  0.17457543  0.47718651  0.54715685     0.21200
C2692       C  0.18934899  0.47038836  0.55631458     0.03400
C2693       C  0.18808610  0.45439943  0.56611304    -0.21900
C2694       C  0.17125038  0.44592373  0.56684057     0.12600
S2695       S  0.13673392  0.44171452  0.56212947    -0.05600
C2696       C  0.14877527  0.42751596  0.57584816    -0.09100
C2697       C  0.16701532  0.43115321  0.57690700    -0.25700
S2698       S  0.20816566  0.48350457  0.55515046    -0.02900
C2699       C  0.19613045  0.49819905  0.54192364    -0.16300
C2700       C  0.17844259  0.49306263  0.53868364    -0.14300
H2701       H  0.14613506  0.47418432  0.54095330     0.21100
H2702       H  0.19956360  0.44915993  0.57340746     0.17100
H2703       H  0.17644058  0.42393403  0.58534203     0.19600
H2704       H  0.16881858  0.50074231  0.53091068     0.13000
C2705       C  0.26449779  0.68794125  0.67042508     0.16800
C2706       C  0.27917476  0.68619163  0.65882372    -0.32200
C2707       C  0.28977607  0.67072435  0.66043759     0.21200
C2708       C  0.28581056  0.65743815  0.67285474     0.03400
C2709       C  0.27119981  0.65924976  0.68452357    -0.21900
C2710       C  0.26072933  0.67482584  0.68306526     0.12600
S2711       S  0.24999639  0.70567954  0.67064059    -0.05600
C2712       C  0.23884591  0.69544425  0.68813243    -0.09100
C2713       C  0.24606970  0.67907855  0.69329723    -0.25700
S2714       S  0.29982370  0.63930466  0.67211800    -0.02900
C2715       C  0.31129743  0.64992747  0.65516067    -0.16300
C2716       C  0.30450617  0.66652756  0.65031485    -0.14300
H2717       H  0.28219130  0.69642537  0.64896447     0.21100
H2718       H  0.26809261  0.64894417  0.69427820     0.17100
H2719       H  0.24088993  0.67072914  0.70399178     0.19600
H2720       H  0.30977358  0.67477877  0.63958848     0.13000
C2721       C  0.18154919  0.67301065  0.75661337     0.16800
C2722       C  0.17828095  0.65948368  0.76926447    -0.32200
C2723       C  0.16474883  0.66247563  0.78195525     0.21200
C2724       C  0.15478011  0.67819388  0.78200563     0.03400
C2725       C  0.15797250  0.69169032  0.76925096    -0.21900
C2726       C  0.17161474  0.68873925  0.75660912     0.12600
S2727       S  0.19768065  0.67208166  0.74041972    -0.05600
C2728       C  0.19108854  0.69316701  0.73351582    -0.09100
C2729       C  0.17698176  0.70034470  0.74333029    -0.25700
S2730       S  0.13887350  0.67912922  0.79849989    -0.02900
C2731       C  0.14581886  0.65816879  0.80535257    -0.16300
C2732       C  0.15964298  0.65092526  0.79532420    -0.14300
H2733       H  0.18603200  0.64719490  0.76928372     0.21100
H2734       H  0.15022843  0.70398216  0.76923639     0.17100
H2735       H  0.17109715  0.71342846  0.74101062     0.19600
H2736       H  0.16545017  0.63779778  0.79758639     0.13000
C2737       C  0.18693651  0.76958106  0.67352618     0.16800
C2738       C  0.18406667  0.78312916  0.66079894    -0.32200
C2739       C  0.16922702  0.79441214  0.66322585     0.21200
C2740       C  0.15783077  0.79243686  0.67778870     0.03400
C2741       C  0.16074240  0.77890783  0.69055462    -0.21900
C2742       C  0.17548818  0.76748660  0.68801674     0.12600
S2743       S  0.20365811  0.75400768  0.67244764    -0.05600
C2744       C  0.19494714  0.74425567  0.69151593    -0.09100
C2745       C  0.18007321  0.75301673  0.69846140    -0.25700
S2746       S  0.14047415  0.80740326  0.67822065    -0.02900
C2747       C  0.14868951  0.81633089  0.65858835    -0.16300
C2748       C  0.16399402  0.80809742  0.65210042    -0.14300
H2749       H  0.19286151  0.78463480  0.64935277     0.21100
H2750       H  0.15175346  0.77718881  0.70181700     0.17100
H2751       H  0.17268688  0.74872504  0.71019809     0.19600
H2752       H  0.17081934  0.81189526  0.63986507     0.13000
C2753       C  0.18115404  0.58788532  0.45316431     0.16800
C2754       C  0.19399348  0.58435546  0.46657117    -0.32200
C2755       C  0.19110201  0.56939249  0.47762808     0.21200
C2756       C  0.17622184  0.55831500  0.47529119     0.03400
C2757       C  0.16344289  0.56178624  0.46185420    -0.21900
C2758       C  0.16622412  0.57683643  0.45094786     0.12600
S2759       S  0.18179636  0.60574550  0.43879849    -0.05600
C2760       C  0.16166621  0.59827978  0.42991666    -0.09100
C2761       C  0.15502360  0.58270465  0.43755529    -0.25700
S2762       S  0.17511592  0.54085357  0.49002323    -0.02900
C2763       C  0.19488902  0.54856078  0.49956151    -0.16300
C2764       C  0.20185502  0.56389242  0.49159402    -0.14300
H2765       H  0.20560678  0.59300271  0.46843745     0.21100
H2766       H  0.15174117  0.55323433  0.46009843     0.17100
H2767       H  0.14248986  0.57625960  0.43370212     0.19600
H2768       H  0.21414660  0.57061607  0.49574605     0.13000
C2769       C  0.05546274  0.68565097  0.46983645     0.16800
C2770       C  0.05728632  0.67349031  0.45552156    -0.32200
C2771       C  0.07387057  0.67298208  0.44664419     0.21200
C2772       C  0.08801807  0.68413652  0.45173779     0.03400
C2773       C  0.08609294  0.69650596  0.46586152    -0.21900
C2774       C  0.06951730  0.69696948  0.47477353     0.12600
S2775       S  0.03685756  0.68747780  0.48307745    -0.05600
C2776       C  0.04810454  0.70368734  0.49542600    -0.09100
C2777       C  0.06529335  0.70750911  0.48930245    -0.25700
S2778       S  0.10732321  0.68084671  0.43983939    -0.02900
C2779       C  0.09614268  0.66441124  0.42780880    -0.16300
C2780       C  0.07844255  0.66167445  0.43281756    -0.14300
H2781       H  0.04637602  0.66455254  0.45170820     0.21100
H2782       H  0.09714684  0.70514031  0.46995978     0.17100
H2783       H  0.07447121  0.71701608  0.49556284     0.19600
H2784       H  0.06956830  0.65168167  0.42689890     0.13000
C2785       C  0.95788801  0.66367599  0.56120070     0.16800
C2786       C  0.97068650  0.66692173  0.54779711    -0.32200
C2787       C  0.98275227  0.68127006  0.55042534     0.21200
C2788       C  0.98211556  0.69191862  0.56573286     0.03400
C2789       C  0.96950554  0.68850126  0.57927963    -0.21900
C2790       C  0.95743306  0.67415260  0.57664829     0.12600
S2791       S  0.94184901  0.64715425  0.56035014    -0.05600
C2792       C  0.93455566  0.65432258  0.58108163    -0.09100
C2793       C  0.94413088  0.66874552  0.58819433    -0.25700
S2794       S  0.99753379  0.70901414  0.56610082    -0.02900
C2795       C  0.00502329  0.70173585  0.54542093    -0.16300
C2796       C  0.99595220  0.68673891  0.53879183    -0.14300
H2797       H  0.97112028  0.65871078  0.53576494     0.21100
H2798       H  0.96902648  0.69676256  0.59127570     0.17100
H2799       H  0.94148209  0.67488933  0.60111816     0.19600
H2800       H  0.99874501  0.68026963  0.52605693     0.13000
C2801       C  0.06955459  0.77433911  0.55188134     0.16800
C2802       C  0.08270049  0.78755179  0.55530661    -0.32200
C2803       C  0.07994877  0.79925253  0.56990068     0.21200
C2804       C  0.06473247  0.79790883  0.58050946     0.03400
C2805       C  0.05173681  0.78459148  0.57720432    -0.21900
C2806       C  0.05453450  0.77284700  0.56272232     0.12600
S2807       S  0.07030695  0.75880095  0.53490757    -0.05600
C2808       C  0.05033546  0.74999224  0.54272479    -0.09100
C2809       C  0.04351580  0.75889606  0.55759296    -0.25700
S2810       S  0.06384232  0.81320030  0.59764771    -0.02900
C2811       C  0.08427649  0.82140957  0.59063310    -0.16300
C2812       C  0.09131366  0.81270254  0.57573809    -0.14300
H2813       H  0.09457651  0.78860548  0.54702591     0.21100
H2814       H  0.03998660  0.78336708  0.58563975     0.17100
H2815       H  0.03118870  0.75528604  0.56438664     0.19600
H2816       H  0.10422951  0.81577470  0.56982978     0.13000
C2817       C  0.92333825  0.16319397  0.68446527     0.16800
C2818       C  0.93111980  0.17004487  0.70027912    -0.32200
C2819       C  0.94693593  0.18023216  0.69870107     0.21200
C2820       C  0.95515445  0.18286396  0.68223544     0.03400
C2821       C  0.94754891  0.17568314  0.66643529    -0.21900
C2822       C  0.93128197  0.16612681  0.66791543     0.12600
S2823       S  0.90316633  0.15216043  0.68336544    -0.05600
C2824       C  0.90506942  0.15200081  0.66025901    -0.09100
C2825       C  0.92088909  0.15966296  0.65398051    -0.25700
S2826       S  0.97347777  0.19688773  0.68307599    -0.02900
C2827       C  0.96953143  0.19973086  0.70568644    -0.16300
C2828       C  0.95514095  0.18984578  0.71217475    -0.14300
H2829       H  0.92462718  0.16829792  0.71314795     0.21100
H2830       H  0.95354754  0.17821774  0.65346069     0.17100
H2831       H  0.92430231  0.16091421  0.63991094     0.19600
H2832       H  0.95032307  0.19047246  0.72587398     0.13000
C2833       C  0.67301511  0.29122443  0.65776186     0.16800
C2834       C  0.68542004  0.27715641  0.65943021    -0.32200
C2835       C  0.68503609  0.26693773  0.67525983     0.21200
C2836       C  0.67303272  0.27074045  0.68892717     0.03400
C2837       C  0.66056115  0.28471404  0.68721069    -0.21900
C2838       C  0.66074614  0.29473429  0.67128598     0.12600
S2839       S  0.67101552  0.30493595  0.63947580    -0.05600
C2840       C  0.65323664  0.31519294  0.65004794    -0.09100
C2841       C  0.64928149  0.30843573  0.66688197    -0.25700
S2842       S  0.67463388  0.25677976  0.70702300    -0.02900
C2843       C  0.69137134  0.24534190  0.69592614    -0.16300
C2844       C  0.69560033  0.25236041  0.67919128    -0.14300
H2845       H  0.69480608  0.27417019  0.64877189     0.21100
H2846       H  0.65097872  0.28751263  0.69774384     0.17100
H2847       H  0.63839344  0.31311102  0.67526058     0.19600
H2848       H  0.70567030  0.24693029  0.67025864     0.13000
C2849       C  0.67587255  0.19154209  0.76824968     0.16800
C2850       C  0.66304453  0.18869371  0.78167858    -0.32200
C2851       C  0.66661232  0.17542159  0.79452368     0.21200
C2852       C  0.68228432  0.16538627  0.79404255     0.03400
C2853       C  0.69505965  0.16811476  0.78046416    -0.21900
C2854       C  0.69147215  0.18142068  0.76756745     0.12600
S2855       S  0.67396263  0.20709692  0.75158714    -0.05600
C2856       C  0.69431316  0.19985086  0.74331574    -0.09100
C2857       C  0.70211275  0.18607656  0.75321095    -0.25700
S2858       S  0.68398280  0.14983307  0.81084179    -0.02900
C2859       C  0.66334388  0.15691754  0.81847453    -0.16300
C2860       C  0.65565654  0.17057358  0.80847804    -0.14300
H2861       H  0.65078895  0.19649276  0.78208500     0.21100
H2862       H  0.70722828  0.16019206  0.77995549     0.17100
H2863       H  0.71481863  0.17978872  0.75005690     0.19600
H2864       H  0.64258407  0.17634927  0.81108909     0.13000
C2865       C  0.75906184  0.18872035  0.67118996     0.16800
C2866       C  0.76985211  0.18422402  0.65647960    -0.32200
C2867       C  0.78579539  0.17480875  0.65989758     0.21200
C2868       C  0.79088124  0.17015417  0.67722706     0.03400
C2869       C  0.78014869  0.17481729  0.69200703    -0.21900
C2870       C  0.76404702  0.18407479  0.68855744     0.12600
S2871       S  0.73919051  0.20000120  0.66969978    -0.05600
C2872       C  0.73739268  0.19842003  0.69272787    -0.09100
C2873       C  0.75155866  0.18950598  0.70101372    -0.25700
S2874       S  0.81031896  0.15796107  0.67834877    -0.02900
C2875       C  0.81154466  0.15910446  0.65520291    -0.16300
C2876       C  0.79764475  0.16865951  0.64725195    -0.14300
H2877       H  0.76586867  0.18772159  0.64291047     0.21100
H2878       H  0.78402827  0.17113569  0.70555379     0.17100
H2879       H  0.75281682  0.18743908  0.71536828     0.19600
H2880       H  0.79604848  0.17053468  0.63289987     0.13000
C2881       C  0.45690482  0.17445905  0.59167764     0.16800
C2882       C  0.47148996  0.18619727  0.58933823    -0.32200
C2883       C  0.48047138  0.18566276  0.57282584     0.21200
C2884       C  0.47523859  0.17388897  0.55926449     0.03400
C2885       C  0.46047522  0.16234042  0.56148692    -0.21900
C2886       C  0.45143711  0.16294008  0.57797331     0.12600
S2887       S  0.44482221  0.17245301  0.61102761    -0.05600
C2888       C  0.43214970  0.15612296  0.60045021    -0.09100
C2889       C  0.43709755  0.15245442  0.58290220    -0.25700
S2890       S  0.48831947  0.17482517  0.54051781    -0.02900
C2891       C  0.50080683  0.19149410  0.55092304    -0.16300
C2892       C  0.49505494  0.19589942  0.56807138    -0.14300
H2893       H  0.47578653  0.19520536  0.60000521     0.21100
H2894       H  0.45634633  0.15314750  0.55091189     0.17100
H2895       H  0.43083786  0.14231557  0.57443830     0.19600
H2896       H  0.50131847  0.20591944  0.57667665     0.13000
C2897       C  0.55394335  0.17226930  0.47875990     0.16800
C2898       C  0.55722679  0.15872256  0.46609015    -0.32200
C2899       C  0.57110505  0.16158410  0.45375392     0.21200
C2900       C  0.58124069  0.17727994  0.45393894     0.03400
C2901       C  0.57797756  0.19082070  0.46665831    -0.21900
C2902       C  0.56413116  0.18791773  0.47906075     0.12600
S2903       S  0.53790605  0.17119295  0.49501089    -0.05600
C2904       C  0.54505169  0.19199999  0.50245917    -0.09100
C2905       C  0.55909518  0.19931150  0.49265203    -0.25700
S2906       S  0.59761523  0.17805119  0.43793741    -0.02900
C2907       C  0.59074187  0.15700051  0.43105473    -0.16300
C2908       C  0.57654687  0.14985564  0.44065576    -0.14300
H2909       H  0.54938583  0.14642857  0.46593710     0.21100
H2910       H  0.58596101  0.20302026  0.46695610     0.17100
H2911       H  0.56541711  0.21216667  0.49543575     0.19600
H2912       H  0.57071197  0.13669741  0.43828516     0.13000
C2913       C  0.56354238  0.26622439  0.55445737     0.16800
C2914       C  0.57463600  0.28145454  0.55519904    -0.32200
C2915       C  0.57383440  0.29223651  0.57063411     0.21200
C2916       C  0.56258420  0.28801034  0.58482544     0.03400
C2917       C  0.55139607  0.27278781  0.58404807    -0.21900
C2918       C  0.55211212  0.26204989  0.56850721     0.12600
S2919       S  0.56268300  0.25145731  0.53689670    -0.05600
C2920       C  0.54653721  0.23957007  0.54841781    -0.09100
C2921       C  0.54226537  0.24675454  0.56510201    -0.25700
S2922       S  0.56439599  0.30233001  0.60277074    -0.02900
C2923       C  0.58036236  0.31409288  0.59090165    -0.16300
C2924       C  0.58398535  0.30727050  0.57400606    -0.14300
H2925       H  0.58359783  0.28470150  0.54425342     0.21100
H2926       H  0.54263295  0.26939181  0.59510784     0.17100
H2927       H  0.53251493  0.24108633  0.57425031     0.19600
H2928       H  0.59406764  0.31261495  0.56502449     0.13000
C2929       C  0.65590134  0.06543206  0.45594607     0.16800
C2930       C  0.65699747  0.05356033  0.47055285    -0.32200
C2931       C  0.67257428  0.05426043  0.48133769     0.21200
C2932       C  0.68645531  0.06615805  0.47764334     0.03400
C2933       C  0.68547712  0.07780672  0.46292446    -0.21900
C2934       C  0.66990299  0.07719611  0.45223643     0.12600
S2935       S  0.63769961  0.06761866  0.44194237    -0.05600
C2936       C  0.64917282  0.08447150  0.43103156    -0.09100
C2937       C  0.66615942  0.08807099  0.43787495    -0.25700
S2938       S  0.70392631  0.06546353  0.49257777    -0.02900
C2939       C  0.69255348  0.04886366  0.50398127    -0.16300
C2940       C  0.67602332  0.04422194  0.49643924    -0.14300
H2941       H  0.64605324  0.04444491  0.47358687     0.21100
H2942       H  0.69625852  0.08719196  0.46012324     0.17100
H2943       H  0.67499120  0.09854820  0.43298305     0.19600
H2944       H  0.66694798  0.03419932  0.50180771     0.13000
C2945       C  0.67301196  0.95735488  0.59035002     0.16800
C2946       C  0.68526557  0.97160426  0.58852860    -0.32200
C2947       C  0.68374502  0.98240210  0.57315487     0.21200
C2948       C  0.67053734  0.97922481  0.56027119     0.03400
C2949       C  0.65847452  0.96484875  0.56196447    -0.21900
C2950       C  0.66006253  0.95399982  0.57723118     0.12600
S2951       S  0.67203715  0.94318796  0.60834614    -0.05600
C2952       C  0.65414296  0.93264579  0.59793256    -0.09100
C2953       C  0.64928775  0.93968796  0.58143719    -0.25700
S2954       S  0.67067223  0.99395295  0.54276393    -0.02900
C2955       C  0.68904932  0.00430072  0.55258448    -0.16300
C2956       C  0.69446419  0.99677478  0.56879455    -0.14300
H2957       H  0.69544286  0.97423004  0.59869078     0.21100
H2958       H  0.64821553  0.96229697  0.55186559     0.17100
H2959       H  0.63815768  0.93488425  0.57325570     0.19600
H2960       H  0.70571960  0.00146147  0.57687195     0.13000
C2961       C  0.76450526  0.05623959  0.56907748     0.16800
C2962       C  0.77771149  0.05983472  0.58217225    -0.32200
C2963       C  0.78907405  0.07469175  0.57949561     0.21200
C2964       C  0.78763309  0.08529691  0.56426202     0.03400
C2965       C  0.77453914  0.08158051  0.55106429    -0.21900
C2966       C  0.76291229  0.06695927  0.55394959     0.12600
S2967       S  0.74868791  0.03956410  0.57041989    -0.05600
C2968       C  0.73952958  0.04733998  0.55057875    -0.09100
C2969       C  0.74864602  0.06188685  0.54326162    -0.25700
S2970       S  0.80230202  0.10308147  0.56386740    -0.02900
C2971       C  0.81027011  0.09630198  0.58457183    -0.16300
C2972       C  0.80207834  0.08091192  0.59115968    -0.14300
H2973       H  0.77877505  0.05168792  0.59416360     0.21100
H2974       H  0.77315964  0.09000543  0.53929835     0.17100
H2975       H  0.74474595  0.06872699  0.53102135     0.19600
H2976       H  0.80525790  0.07484153  0.60399654     0.13000
C2977       C  0.45575633  0.06544911  0.67153837     0.16800
C2978       C  0.46834552  0.05177923  0.67466413    -0.32200
C2979       C  0.48156131  0.05482137  0.68790654     0.21200
C2980       C  0.48197436  0.07064976  0.69780110     0.03400
C2981       C  0.46924555  0.08418596  0.69488642    -0.21900
C2982       C  0.45625798  0.08127423  0.68144978     0.12600
S2983       S  0.43935083  0.06484152  0.65533775    -0.05600
C2984       C  0.43321949  0.08611245  0.66200371    -0.09100
C2985       C  0.44331614  0.09319418  0.67603935    -0.25700
S2986       S  0.49937948  0.07214104  0.71272699    -0.02900
C2987       C  0.50641967  0.05127628  0.70549697    -0.16300
C2988       C  0.49555081  0.04358309  0.69230791    -0.14300
H2989       H  0.46811741  0.03950184  0.66681354     0.21100
H2990       H  0.46971457  0.09663015  0.70246828     0.17100
H2991       H  0.44144937  0.10646455  0.68172887     0.19600
H2992       H  0.49788538  0.03062178  0.68611173     0.13000
C2993       C  0.59176483  0.06674488  0.79866091     0.16800
C2994       C  0.58805283  0.05335566  0.78586512    -0.32200
C2995       C  0.57427288  0.05664367  0.77335408     0.21200
C2996       C  0.56442916  0.07243111  0.77371630     0.03400
C2997       C  0.56815819  0.08583847  0.78646698    -0.21900
C2998       C  0.58209291  0.08265438  0.79880643     0.12600
S2999       S  0.60830399  0.06559415  0.81467859    -0.05600
C3000       C  0.60219617  0.08683590  0.82139315    -0.09100
C3001       C  0.58808422  0.09427359  0.81182043    -0.25700
S3002       S  0.54821811  0.07380785  0.75745806    -0.02900
C3003       C  0.55496528  0.05300354  0.74987060    -0.16300
C3004       C  0.56895278  0.04546523  0.75963709    -0.14300
H3005       H  0.59570060  0.04100746  0.78554386     0.21100
H3006       H  0.56065244  0.09827915  0.78664893     0.17100
H3007       H  0.58274436  0.10759905  0.81411073     0.19600
H3008       H  0.57489949  0.03249505  0.75686749     0.13000
C3009       C  0.56742540  0.95327833  0.67174242     0.16800
C3010       C  0.55422912  0.96648877  0.67424588    -0.32200
C3011       C  0.55747344  0.97976040  0.68735072     0.21200
C3012       C  0.57306216  0.97968069  0.69768270     0.03400
C3013       C  0.58629552  0.96653530  0.69513486    -0.21900
C3014       C  0.58316724  0.95343737  0.68185559     0.12600
S3015       S  0.56635572  0.93652039  0.65599780    -0.05600
C3016       C  0.58743328  0.92985612  0.66290885    -0.09100
C3017       C  0.59476136  0.94004536  0.67678560    -0.25700
S3018       S  0.57447516  0.99681209  0.71291981    -0.02900
C3019       C  0.55394424  0.00443411  0.70518056    -0.16300
C3020       C  0.54647444  0.99400046  0.69151293    -0.14300
H3021       H  0.54207426  0.96656065  0.66615180     0.21100
H3022       H  0.59859745  0.96665273  0.70300823     0.17100
H3023       H  0.60807496  0.93809673  0.68241540     0.19600
H3024       H  0.53371337  0.99667456  0.68497693     0.13000
C3025       C  0.05667760  0.06960970  0.45850617     0.16800
C3026       C  0.06169152  0.08573842  0.45009612    -0.32200
C3027       C  0.07152059  0.08448567  0.43403625     0.21200
C3028       C  0.07666150  0.06799390  0.42705331     0.03400
C3029       C  0.07212162  0.05200921  0.43570115    -0.21900
C3030       C  0.06180913  0.05322041  0.45130131     0.12600
S3031       S  0.04245874  0.06779931  0.47650342    -0.05600
C3032       C  0.04315550  0.04479741  0.47371753    -0.09100
C3033       C  0.05425039  0.03905232  0.46003710    -0.25700
S3034       S  0.08770646  0.06906891  0.40707005    -0.02900
C3035       C  0.08520062  0.09201459  0.40786148    -0.16300
C3036       C  0.07649134  0.09839551  0.42305721    -0.14300
H3037       H  0.05737084  0.09860701  0.45531099     0.21100
H3038       H  0.07571097  0.03910662  0.43001175     0.17100
H3039       H  0.05568981  0.02516929  0.45586839     0.19600
H3040       H  0.07387915  0.11244092  0.42579812     0.13000
C3041       C  0.91819706  0.06551644  0.57529463     0.16800
C3042       C  0.92441100  0.04973743  0.56722802    -0.32200
C3043       C  0.94108103  0.05040117  0.55862091     0.21200
C3044       C  0.95142423  0.06593890  0.55840134     0.03400
C3045       C  0.94513046  0.08182923  0.56641496    -0.21900
C3046       C  0.92816929  0.08128614  0.57466104     0.12600
S3047       S  0.89807612  0.06740978  0.58591769    -0.05600
C3048       C  0.90265060  0.08995192  0.58897803    -0.09100
C3049       C  0.91926545  0.09542655  0.58246925    -0.25700
S3050       S  0.97128551  0.06377422  0.54704522    -0.02900
C3051       C  0.96519166  0.04191816  0.54211408    -0.16300
C3052       C  0.94883065  0.03667204  0.54923642    -0.14300
H3053       H  0.91642707  0.03753506  0.56736216     0.21100
H3054       H  0.95293584  0.09412966  0.56594571     0.17100
H3055       H  0.92438209  0.10905461  0.58318935     0.19600
H3056       H  0.94275315  0.02353984  0.54735260     0.13000
C3057       C  0.08150921  0.93957555  0.57589429     0.16800
C3058       C  0.07971227  0.95241565  0.56222461    -0.32200
C3059       C  0.06383397  0.96255176  0.56170969     0.21200
C3060       C  0.05056294  0.96033774  0.57453202     0.03400
C3061       C  0.05248647  0.94770880  0.58835748    -0.21900
C3062       C  0.06811880  0.93722497  0.58857976     0.12600
S3063       S  0.09910913  0.92502754  0.57804608    -0.05600
C3064       C  0.08820248  0.91556028  0.59605458    -0.09100
C3065       C  0.07187673  0.92341259  0.60019565    -0.25700
S3066       S  0.03140897  0.97219976  0.57034922    -0.02900
C3067       C  0.04118148  0.98001010  0.55096672    -0.16300
C3068       C  0.05853767  0.97391621  0.54817811    -0.14300
H3069       H  0.08988822  0.95388178  0.55198156     0.21100
H3070       H  0.04186864  0.94555079  0.59801481     0.17100
H3071       H  0.06319543  0.91910706  0.61099953     0.19600
H3072       H  0.06614265  0.97623568  0.53603068     0.13000
C3073       C  0.93548770  0.06600655  0.40981888     0.16800
C3074       C  0.95005641  0.05495147  0.41422791    -0.32200
C3075       C  0.94759781  0.04233840  0.42797710     0.21200
C3076       C  0.93129629  0.04059428  0.43676400     0.03400
C3077       C  0.91654772  0.05121177  0.43192607    -0.21900
C3078       C  0.91909693  0.06402660  0.41841440     0.12600
S3079       S  0.93618261  0.08323021  0.39469375    -0.05600
C3080       C  0.91416981  0.08766281  0.40005018    -0.09100
C3081       C  0.90674105  0.07634206  0.41270741    -0.25700
S3082       S  0.93171672  0.02619080  0.45457641    -0.02900
C3083       C  0.95413911  0.02253808  0.45021516    -0.16300
C3084       C  0.96065594  0.03173850  0.43541915    -0.14300
H3085       H  0.96296104  0.05662665  0.40777000     0.21100
H3086       H  0.90388177  0.05010328  0.43894525     0.17100
H3087       H  0.89311745  0.07732674  0.41766089     0.19600
H3088       H  0.97456310  0.03174994  0.43118171     0.13000
C3089       C  0.80920901  0.43642066  0.70233320     0.16800
C3090       C  0.82530631  0.42907931  0.69587524    -0.32200
C3091       C  0.82437714  0.41860270  0.68012625     0.21200
C3092       C  0.80806570  0.41481938  0.67176300     0.03400
C3093       C  0.79201147  0.42189710  0.67835989    -0.21900
C3094       C  0.79305615  0.43311173  0.69347852     0.12600
S3095       S  0.80759299  0.45139556  0.71979839    -0.05600
C3096       C  0.78515311  0.45376026  0.71443445    -0.09100
C3097       C  0.77927805  0.44305956  0.70030733    -0.25700
S3098       S  0.80970988  0.40267023  0.65237608    -0.02900
C3099       C  0.83274320  0.40340489  0.65496608    -0.16300
C3100       C  0.83863034  0.41204712  0.67052426    -0.14300
H3101       H  0.83807751  0.43219750  0.70225440     0.21100
H3102       H  0.77936688  0.41957515  0.67140926     0.17100
H3103       H  0.76576411  0.44320119  0.69477831     0.19600
H3104       H  0.85261742  0.41399679  0.67420685     0.13000
C3105       C  0.67196176  0.45602760  0.68415151     0.16800
C3106       C  0.65742597  0.44441894  0.68091769    -0.32200
C3107       C  0.65921658  0.43173070  0.66709540     0.21200
C3108       C  0.67473831  0.43066689  0.65688931     0.03400
C3109       C  0.68912666  0.44246383  0.65993268    -0.21900
C3110       C  0.68736333  0.45510647  0.67378233     0.12600
S3111       S  0.67324273  0.47106635  0.70146945    -0.05600
C3112       C  0.69484649  0.47600068  0.69477753    -0.09100
C3113       C  0.70041458  0.46675195  0.67961820    -0.25700
S3114       S  0.67451680  0.41403468  0.64106806    -0.02900
C3115       C  0.65322200  0.40868658  0.64816279    -0.16300
C3116       C  0.64674072  0.41910912  0.66207981    -0.14300
H3117       H  0.64544530  0.44494861  0.68909682     0.21100
H3118       H  0.70132858  0.44156031  0.65211956     0.17100
H3119       H  0.71379141  0.46748774  0.67398442     0.19600
H3120       H  0.63361723  0.41752014  0.66810911     0.13000
C3121       C  0.79052688  0.55494358  0.66579517     0.16800
C3122       C  0.80254392  0.55760018  0.65154964    -0.32200
C3123       C  0.81441064  0.57230942  0.65274098     0.21200
C3124       C  0.81408367  0.58401550  0.66728775     0.03400
C3125       C  0.80190755  0.58151621  0.68133173    -0.21900
C3126       C  0.79026294  0.56670125  0.68028356     0.12600
S3127       S  0.77644857  0.53685772  0.66801841    -0.05600
C3128       C  0.77037973  0.54513670  0.68881327    -0.09100
C3129       C  0.77858135  0.56130121  0.69336075    -0.25700
S3130       S  0.82978511  0.60077761  0.66656492    -0.02900
C3131       C  0.83703511  0.59187388  0.64652318    -0.16300
C3132       C  0.82760435  0.57678429  0.64071674    -0.14300
H3133       H  0.80301968  0.54830468  0.64033462     0.21100
H3134       H  0.80186191  0.59045517  0.69284836     0.17100
H3135       H  0.77708117  0.56809906  0.70615744     0.19600
H3136       H  0.83031437  0.56952811  0.62839480     0.13000
C3137       C  0.68488951  0.58806188  0.81773829     0.16800
C3138       C  0.69848312  0.58508288  0.80501354    -0.32200
C3139       C  0.69626839  0.57055275  0.79304130     0.21200
C3140       C  0.68120028  0.55955218  0.79378044     0.03400
C3141       C  0.66784884  0.56231156  0.80667032    -0.21900
C3142       C  0.67005411  0.57675450  0.81860054     0.12600
S3143       S  0.68436976  0.60548701  0.83281389    -0.05600
C3144       C  0.66396757  0.59738265  0.84024971    -0.09100
C3145       C  0.65819185  0.58183569  0.83167668    -0.25700
S3146       S  0.68097192  0.54251193  0.77845391    -0.02900
C3147       C  0.70165777  0.54986090  0.77107678    -0.16300
C3148       C  0.70810648  0.56505976  0.77998022    -0.14300
H3149       H  0.71018070  0.59376361  0.80439280     0.21100
H3150       H  0.65617893  0.55359220  0.80732495     0.17100
H3151       H  0.64562700  0.57501438  0.83445068     0.19600
H3152       H  0.72109754  0.57121290  0.77763795     0.13000
C3153       C  0.45714013  0.57805787  0.15293397     0.16800
C3154       C  0.47206229  0.56672257  0.15440662    -0.32200
C3155       C  0.48057071  0.56551487  0.17123702     0.21200
C3156       C  0.47473088  0.57537348  0.18591423     0.03400
C3157       C  0.45972735  0.58665078  0.18447094    -0.21900
C3158       C  0.45102851  0.58763835  0.16770201     0.12600
S3159       S  0.44497193  0.58134967  0.13367413    -0.05600
C3160       C  0.43137051  0.59551257  0.14574944    -0.09100
C3161       C  0.43612169  0.59764018  0.16365451    -0.25700
S3162       S  0.48707122  0.57208520  0.20510911    -0.02900
C3163       C  0.49996070  0.55695898  0.19330864    -0.16300
C3164       C  0.49494733  0.55485888  0.17542611    -0.14300
H3165       H  0.47676756  0.55908222  0.14296265     0.21100
H3166       H  0.45497299  0.59422867  0.19593344     0.17100
H3167       H  0.42912000  0.60617804  0.17309590     0.19600
H3168       H  0.50145551  0.54593325  0.16597891     0.13000
C3169       C  0.54568830  0.48093491  0.17154055     0.16800
C3170       C  0.54772476  0.46873891  0.15740060    -0.32200
C3171       C  0.56081958  0.45546092  0.15933233     0.21200
C3172       C  0.57124105  0.45407797  0.17481462     0.03400
C3173       C  0.56903463  0.46617134  0.18910971    -0.21900
C3174       C  0.55614322  0.47973208  0.18700222     0.12600
S3175       S  0.53131990  0.49865929  0.17113818    -0.05600
C3176       C  0.53956833  0.50474871  0.19195503    -0.09100
C3177       C  0.55266010  0.49340207  0.19884083    -0.25700
S3178       S  0.58717254  0.43764516  0.17397050    -0.02900
C3179       C  0.57977727  0.43295701  0.15249263    -0.16300
C3180       C  0.56563158  0.44330541  0.14648349    -0.14300
H3181       H  0.53982173  0.46989322  0.14518021     0.21100
H3182       H  0.57736400  0.46539301  0.20107660     0.17100
H3183       H  0.55948940  0.49524693  0.21162288     0.19600
H3184       H  0.55972885  0.44243633  0.13315805     0.13000
C3185       C  0.47131371  0.68255356  0.04943339     0.16800
C3186       C  0.45690289  0.67046281  0.05095006    -0.32200
C3187       C  0.44531660  0.67262561  0.06560253     0.21200
C3188       C  0.44759345  0.68655717  0.07786272     0.03400
C3189       C  0.46176272  0.69886400  0.07610548    -0.21900
C3190       C  0.47368471  0.69634840  0.06180858     0.12600
S3191       S  0.48768798  0.68142976  0.03347488    -0.05600
C3192       C  0.49791718  0.69966465  0.04369428    -0.09100
C3193       C  0.48891618  0.70618752  0.05859910    -0.25700
S3194       S  0.43298102  0.68608829  0.09547357    -0.02900
C3195       C  0.42408805  0.66662648  0.08648652    -0.16300
C3196       C  0.43172193  0.66119165  0.07044421    -0.14300
H3197       H  0.45521914  0.65943418  0.04154729     0.21100
H3198       H  0.46383624  0.70950062  0.08587914     0.17100
H3199       H  0.49334949  0.71746106  0.06676068     0.19600
H3200       H  0.42809108  0.64902522  0.06324005     0.13000
C3201       C  0.58382210  0.79223911  0.06423923     0.16800
C3202       C  0.57834729  0.78126108  0.04990461    -0.32200
C3203       C  0.56544364  0.76799365  0.05336133     0.21200
C3204       C  0.55807771  0.76582339  0.07029538     0.03400
C3205       C  0.56365164  0.77675038  0.08473131    -0.21900
C3206       C  0.57675160  0.78993814  0.08130003     0.12600
S3207       S  0.59936664  0.80905794  0.06263447    -0.05600
C3208       C  0.59646276  0.81297470  0.08520444    -0.09100
C3209       C  0.58409023  0.80180002  0.09348759    -0.25700
S3210       S  0.54249464  0.74891134  0.07152580    -0.02900
C3211       C  0.54632723  0.74452980  0.04908875    -0.16300
C3212       C  0.55882508  0.75579977  0.04119222    -0.14300
H3213       H  0.58398393  0.78292753  0.03662556     0.21100
H3214       H  0.55809932  0.77500118  0.09803424     0.17100
H3215       H  0.58066355  0.80240379  0.10760049     0.19600
H3216       H  0.56295488  0.75503589  0.02727592     0.13000
C3217       C  0.55562259  0.68339522  0.97422678     0.16800
C3218       C  0.55893310  0.67087630  0.96058799    -0.32200
C3219       C  0.57423356  0.67343515  0.95002419     0.21200
C3220       C  0.58588395  0.68777213  0.95293233     0.03400
C3221       C  0.58250105  0.70042306  0.96655484    -0.21900
C3222       C  0.56708606  0.69787817  0.97711056     0.12600
S3223       S  0.53801564  0.68220093  0.98873185    -0.05600
C3224       C  0.54609099  0.70141912  0.99895214    -0.09100
C3225       C  0.56162063  0.70836473  0.99127480    -0.25700
S3226       S  0.60420522  0.68783282  0.93910414    -0.02900
C3227       C  0.59583062  0.66851519  0.92925991    -0.16300
C3228       C  0.57981834  0.66242156  0.93640924    -0.14300
H3229       H  0.55004917  0.65949689  0.95842337     0.21100
H3230       H  0.59158101  0.71159764  0.96896591     0.17100
H3231       H  0.56870327  0.72023358  0.99600011     0.19600
H3232       H  0.57296894  0.65022388  0.93222229     0.13000
C3233       C  0.68529258  0.48803777  0.07267841     0.16800
C3234       C  0.68252357  0.47341687  0.08426367    -0.32200
C3235       C  0.66672821  0.46319076  0.08185237     0.21200
C3236       C  0.65432133  0.46731446  0.06848992     0.03400
C3237       C  0.65727122  0.48165408  0.05675602    -0.21900
C3238       C  0.67295021  0.49187129  0.05919823     0.12600
S3239       S  0.70313339  0.50267075  0.07363168    -0.05600
C3240       C  0.69383557  0.51388419  0.05556174    -0.09100
C3241       C  0.67781132  0.50653667  0.04932650    -0.25700
S3242       S  0.63565085  0.45389419  0.06811645    -0.02900
C3243       C  0.64465021  0.44246587  0.08605321    -0.16300
C3244       C  0.66127430  0.44876290  0.09194028    -0.14300
H3245       H  0.69209594  0.47031220  0.09482578     0.21100
H3246       H  0.64760751  0.48488702  0.04631394     0.17100
H3247       H  0.66998538  0.51174571  0.03818570     0.19600
H3248       H  0.66878908  0.44319539  0.10311015     0.13000
C3249       C  0.79019769  0.57798684  0.08798392     0.16800
C3250       C  0.77496076  0.56685728  0.08793162    -0.32200
C3251       C  0.76413849  0.56674767  0.07244811     0.21200
C3252       C  0.76827999  0.57732403  0.05770880     0.03400
C3253       C  0.78363303  0.58828635  0.05766111    -0.21900
C3254       C  0.79448866  0.58834292  0.07311841     0.12600
S3255       S  0.80451349  0.58060821  0.10579173    -0.05600
C3256       C  0.81645001  0.59565089  0.09302068    -0.09100
C3257       C  0.80969450  0.59846697  0.07588942    -0.25700
S3258       S  0.75320057  0.57577034  0.04046347    -0.02900
C3259       C  0.74127770  0.56049953  0.05311079    -0.16300
C3260       C  0.74867903  0.55694168  0.06985250    -0.14300
H3261       H  0.77158220  0.55879509  0.09953033     0.21100
H3262       H  0.78686033  0.59655120  0.04616010     0.17100
H3263       H  0.81530171  0.60778856  0.06626398     0.19600
H3264       H  0.74299056  0.54782890  0.07962906     0.13000
C3265       C  0.67803189  0.56513308  0.98037623     0.16800
C3266       C  0.66728964  0.56630795  0.96489762    -0.32200
C3267       C  0.66832263  0.58217482  0.95485703     0.21200
C3268       C  0.67957179  0.59625138  0.95994915     0.03400
C3269       C  0.69054870  0.59493951  0.97523359    -0.21900
C3270       C  0.68948171  0.57909052  0.98528427     0.12600
S3271       S  0.67818083  0.54735843  0.99482849    -0.05600
C3272       C  0.69400924  0.55878681  0.00747890    -0.09100
C3273       C  0.69878268  0.57546830  0.00074937    -0.25700
S3274       S  0.67809699  0.61478713  0.94660006    -0.02900
C3275       C  0.66230123  0.60334318  0.93399668    -0.16300
C3276       C  0.65843466  0.58614541  0.93983022    -0.14300
H3277       H  0.65829580  0.55546855  0.96102367     0.21100
H3278       H  0.69929854  0.60591172  0.97929509     0.17100
H3279       H  0.70840954  0.58456184  0.00695606     0.19600
H3280       H  0.64852906  0.57730425  0.93370706     0.13000
C3281       C  0.56992922  0.58372501  0.28656187     0.16800
C3282       C  0.55747877  0.58391040  0.27236344    -0.32200
C3283       C  0.55519824  0.56804286  0.26241322     0.21200
C3284       C  0.56485046  0.55264443  0.26644335     0.03400
C3285       C  0.57721609  0.55240589  0.28073737    -0.21900
C3286       C  0.57953709  0.56829943  0.29065466     0.12600
S3287       S  0.57508678  0.60182431  0.29974758    -0.05600
C3288       C  0.59027816  0.58844742  0.31088865    -0.09100
C3289       C  0.59125869  0.57092525  0.30471067    -0.25700
S3290       S  0.56061091  0.53499127  0.25236037    -0.02900
C3291       C  0.54564541  0.54848982  0.24091613    -0.16300
C3292       C  0.54407934  0.56572073  0.24782363    -0.14300
H3293       H  0.55007026  0.59597010  0.26906329     0.21100
H3294       H  0.58486359  0.54044122  0.28383257     0.17100
H3295       H  0.60031950  0.56084678  0.30998152     0.19600
H3296       H  0.53559593  0.57611911  0.24222135     0.13000
C3297       C  0.67469716  0.68331879  0.26116807     0.16800
C3298       C  0.66022640  0.67918155  0.27236633    -0.32200
C3299       C  0.66360654  0.66800589  0.28709452     0.21200
C3300       C  0.68062880  0.66119702  0.29053510     0.03400
C3301       C  0.69508180  0.66522367  0.27923795    -0.21900
C3302       C  0.69169682  0.67641647  0.26449095     0.12600
S3303       S  0.67341602  0.69703148  0.24292415    -0.05600
C3304       C  0.69601822  0.69339330  0.23965264    -0.09100
C3305       C  0.70399809  0.68204583  0.25207143    -0.25700
S3306       S  0.68188326  0.64767786  0.30897360    -0.02900
C3307       C  0.65923799  0.65117351  0.31192837    -0.16300
C3308       C  0.65124300  0.66229379  0.29936681    -0.14300
H3309       H  0.64692681  0.68448297  0.26974207     0.21100
H3310       H  0.70836894  0.65987968  0.28183128     0.17100
H3311       H  0.71808187  0.67839172  0.25219747     0.19600
H3312       H  0.63708784  0.66565486  0.29905575     0.13000
C3313       C  0.77325834  0.67688766  0.19300742     0.16800
C3314       C  0.78655424  0.66373838  0.19082241    -0.32200
C3315       C  0.79961128  0.66662346  0.17759268     0.21200
C3316       C  0.79970015  0.68214284  0.16730990     0.03400
C3317       C  0.78648822  0.69536449  0.16961984    -0.21900
C3318       C  0.77315224  0.69226482  0.18253198     0.12600
S3319       S  0.75567628  0.67537510  0.20756126    -0.05600
C3320       C  0.74784855  0.69555576  0.19928989    -0.09100
C3321       C  0.75857924  0.70302042  0.18603989    -0.25700
S3322       S  0.81605883  0.68267948  0.15128532    -0.02900
C3323       C  0.82258425  0.66162920  0.15824963    -0.16300
C3324       C  0.81275187  0.65478169  0.17244909    -0.14300
H3325       H  0.78640386  0.65153851  0.19871641     0.21100
H3326       H  0.78628979  0.70728867  0.16131971     0.17100
H3327       H  0.75574003  0.71549868  0.17915305     0.19600
H3328       H  0.81463428  0.64154179  0.17813888     0.13000
C3329       C  0.68591316  0.79026221  0.15892374     0.16800
C3330       C  0.69944568  0.77774845  0.16291565    -0.32200
C3331       C  0.69566526  0.76449802  0.17576913     0.21200
C3332       C  0.67920495  0.76389108  0.18440464     0.03400
C3333       C  0.66564542  0.77630551  0.18035090    -0.21900
C3334       C  0.66935833  0.78940553  0.16737049     0.12600
S3335       S  0.68769283  0.80719278  0.14351142    -0.05600
C3336       C  0.66584086  0.81296110  0.14836493    -0.09100
C3337       C  0.65775737  0.80235292  0.16129485    -0.25700
S3338       S  0.67727190  0.74698544  0.19968800    -0.02900
C3339       C  0.69880145  0.74039072  0.19425528    -0.16300
C3340       C  0.70696227  0.75097561  0.18130607    -0.14300
H3341       H  0.71231361  0.77824437  0.15620684     0.21100
H3342       H  0.65272062  0.77571000  0.18695146     0.17100
H3343       H  0.64403259  0.80392194  0.16579712     0.19600
H3344       H  0.72041616  0.74891546  0.17623883     0.13000
C3345       C  0.06806079  0.33377714  0.81364219     0.16800
C3346       C  0.05712943  0.33040968  0.79866252    -0.32200
C3347       C  0.04366584  0.31736987  0.80036065     0.21200
C3348       C  0.04101285  0.30817537  0.81632250     0.03400
C3349       C  0.05158849  0.31195625  0.83153588    -0.21900
C3350       C  0.06525573  0.32484642  0.82974220     0.12600
S3351       S  0.08592638  0.34817407  0.81376448    -0.05600
C3352       C  0.08960767  0.34213811  0.83572529    -0.09100
C3353       C  0.07757623  0.32974404  0.84259957    -0.25700
S3354       S  0.02563036  0.29116153  0.81481771    -0.02900
C3355       C  0.02289274  0.29649814  0.79243496    -0.16300
C3356       C  0.03303167  0.31099127  0.78672815    -0.14300
H3357       H  0.05947928  0.33715083  0.78600806     0.21100
H3358       H  0.04976571  0.30463841  0.84395533     0.17100
H3359       H  0.07794206  0.32458851  0.85619348     0.19600
H3360       H  0.03380802  0.31556874  0.77294430     0.13000
C3361       C  0.67211310  0.43917078  0.82536262     0.16800
C3362       C  0.67821101  0.45478594  0.81690483    -0.32200
C3363       C  0.69388286  0.45359510  0.80663670     0.21200
C3364       C  0.70351353  0.43774323  0.80526240     0.03400
C3365       C  0.69746707  0.42207968  0.81389231    -0.21900
C3366       C  0.68140644  0.42312720  0.82374083     0.12600
S3367       S  0.65258520  0.43766791  0.83715568    -0.05600
C3368       C  0.65656044  0.41499895  0.83949474    -0.09100
C3369       C  0.67254284  0.40916360  0.83192937    -0.25700
S3370       S  0.72186182  0.43915989  0.79143528    -0.02900
C3371       C  0.71603780  0.46113907  0.78713279    -0.16300
C3372       C  0.70093693  0.46695553  0.79624883    -0.14300
H3373       H  0.67069341  0.46719289  0.81775246     0.21100
H3374       H  0.70460544  0.40950716  0.81247870     0.17100
H3375       H  0.67706604  0.39535137  0.83190370     0.19600
H3376       H  0.69508076  0.48019405  0.79488429     0.13000
C3377       C  0.34151797  0.54049634  0.93204111     0.16800
C3378       C  0.33841528  0.52695673  0.94474332    -0.32200
C3379       C  0.32325470  0.51592045  0.94222775     0.21200
C3380       C  0.31163944  0.51836888  0.92778647     0.03400
C3381       C  0.31472192  0.53190012  0.91510990    -0.21900
C3382       C  0.32995641  0.54281133  0.91752415     0.12600
S3383       S  0.35922462  0.55518041  0.93259309    -0.05600
C3384       C  0.35108154  0.56433517  0.91294270    -0.09100
C3385       C  0.33540659  0.55646886  0.90647238    -0.25700
S3386       S  0.29415232  0.50351389  0.92692912    -0.02900
C3387       C  0.30260756  0.49370675  0.94615026    -0.16300
C3388       C  0.31812257  0.50178135  0.95286615    -0.14300
H3389       H  0.34749089  0.52502689  0.95601000     0.21100
H3390       H  0.30571825  0.53373742  0.90376838     0.17100
H3391       H  0.32842310  0.56055514  0.89434543     0.19600
H3392       H  0.32536552  0.49742535  0.96474455     0.13000
C3393       C  0.23114517  0.43979515  0.92400451     0.16800
C3394       C  0.21791530  0.43725264  0.91067743    -0.32200
C3395       C  0.20612385  0.42261449  0.91259855     0.21200
C3396       C  0.20745926  0.41103668  0.92712788     0.03400
C3397       C  0.22055103  0.41370277  0.94050925    -0.21900
C3398       C  0.23233591  0.42830686  0.93859890     0.12600
S3399       S  0.24702330  0.45643664  0.92399098    -0.05600
C3400       C  0.25529308  0.44789768  0.94394213    -0.09100
C3401       C  0.24611529  0.43290173  0.95009744    -0.25700
S3402       S  0.19242755  0.39364325  0.92672057    -0.02900
C3403       C  0.18418591  0.40210298  0.90684798    -0.16300
C3404       C  0.19265689  0.41758566  0.90090869    -0.14300
H3405       H  0.21697725  0.44616743  0.89923533     0.21100
H3406       H  0.22163623  0.40465227  0.95182947     0.17100
H3407       H  0.24941471  0.42565722  0.96227478     0.19600
H3408       H  0.18935171  0.42450936  0.88854686     0.13000
C3409       C  0.33748674  0.42938262  0.03995817     0.16800
C3410       C  0.33673793  0.44037724  0.02469746    -0.32200
C3411       C  0.32045753  0.44100227  0.01507309     0.21200
C3412       C  0.30555410  0.43118960  0.02044931     0.03400
C3413       C  0.30624492  0.42034585  0.03582247    -0.21900
C3414       C  0.32255953  0.41960393  0.04536550     0.12600
S3415       S  0.35627057  0.42599815  0.05281082    -0.05600
C3416       C  0.34394247  0.41105761  0.06544688    -0.09100
C3417       C  0.32616675  0.40910955  0.06007366    -0.25700
S3418       S  0.28729003  0.43321156  0.00655985    -0.02900
C3419       C  0.29980996  0.44750097  0.99336989    -0.16300
C3420       C  0.31720783  0.45048885  0.99960809    -0.14300
H3421       H  0.34843594  0.44784385  0.02031835     0.21100
H3422       H  0.29467750  0.41253971  0.03995342     0.17100
H3423       H  0.31664203  0.39997789  0.06618480     0.19600
H3424       H  0.32706311  0.45888820  0.99299467     0.13000
C3425       C  0.52311434  0.44871422  0.81444272     0.16800
C3426       C  0.53606054  0.44524840  0.82773010    -0.32200
C3427       C  0.54572108  0.42916997  0.82643115     0.21200
C3428       C  0.54291703  0.41719901  0.81233891     0.03400
C3429       C  0.53023017  0.42085948  0.79883074    -0.21900
C3430       C  0.52029150  0.43678023  0.80033816     0.12600
S3431       S  0.50895201  0.46670705  0.81447674    -0.05600
C3432       C  0.49891151  0.45797417  0.79539880    -0.09100
C3433       C  0.50650614  0.44209692  0.78927833    -0.25700
S3434       S  0.55555690  0.39810030  0.81360173    -0.02900
C3435       C  0.56460625  0.40639132  0.83330920    -0.16300
C3436       C  0.55823080  0.42304812  0.83848736    -0.14300
H3437       H  0.53813765  0.45442572  0.83888628     0.21100
H3438       H  0.52783971  0.41146682  0.78791707     0.17100
H3439       H  0.50181022  0.43452495  0.77769650     0.19600
H3440       H  0.56246006  0.43018095  0.85051368     0.13000
C3441       C  0.43216967  0.52709484  0.80690895     0.16800
C3442       C  0.41848982  0.53905360  0.81180983    -0.32200
C3443       C  0.42184448  0.55073682  0.82631969     0.21200
C3444       C  0.43824017  0.55080905  0.83532698     0.03400
C3445       C  0.45197392  0.53894677  0.83032254    -0.21900
C3446       C  0.44847037  0.52698683  0.81605949     0.12600
S3447       S  0.43039883  0.51121124  0.79031730    -0.05600
C3448       C  0.45174155  0.50407997  0.79593855    -0.09100
C3449       C  0.45974311  0.51381320  0.80983960    -0.25700
S3450       S  0.43945974  0.56568283  0.85289495    -0.02900
C3451       C  0.41756487  0.57159546  0.84822169    -0.16300
C3452       C  0.40991544  0.56266420  0.83368036    -0.14300
H3453       H  0.40563492  0.53896462  0.80488512     0.21100
H3454       H  0.46468353  0.53875657  0.83750739     0.17100
H3455       H  0.47300214  0.51119916  0.81532016     0.19600
H3456       H  0.39625352  0.56461152  0.82897196     0.13000
C3457       C  0.43419068  0.44890071  0.72300437     0.16800
C3458       C  0.42205344  0.44616346  0.70871506    -0.32200
C3459       C  0.42316807  0.42992826  0.69911767     0.21200
C3460       C  0.43586150  0.41702160  0.70350554     0.03400
C3461       C  0.44825706  0.41994505  0.71751170    -0.21900
C3462       C  0.44707549  0.43612973  0.72716006     0.12600
S3463       S  0.43429244  0.46714262  0.73704462    -0.05600
C3464       C  0.45196274  0.45753210  0.74860097    -0.09100
C3465       C  0.45742285  0.44108138  0.74170175    -0.25700
S3466       S  0.43424123  0.39770403  0.69111107    -0.02900
C3467       C  0.41644236  0.40718987  0.67975985    -0.16300
C3468       C  0.41205076  0.42440287  0.68534339    -0.14300
H3469       H  0.41190883  0.45606508  0.70549663     0.21100
H3470       H  0.45810916  0.40984857  0.72102611     0.17100
H3471       H  0.46813697  0.43296044  0.74727834     0.19600
H3472       H  0.40097264  0.43216801  0.67998323     0.13000
C3473       C  0.51903354  0.32507234  0.94009084     0.16800
C3474       C  0.53340150  0.33727850  0.93875400    -0.32200
C3475       C  0.54402935  0.33644818  0.92323528     0.21200
C3476       C  0.54050723  0.32400024  0.90971758     0.03400
C3477       C  0.52632654  0.31170057  0.91117789    -0.21900
C3478       C  0.51570772  0.31255532  0.92661275     0.12600
S3479       S  0.50415510  0.32415180  0.95747149    -0.05600
C3480       C  0.49348412  0.30661975  0.94646594    -0.09100
C3481       C  0.50114184  0.30191025  0.93021333    -0.25700
S3482       S  0.55421363  0.32566242  0.89151929    -0.02900
C3483       C  0.56488455  0.34325270  0.90220404    -0.16300
C3484       C  0.55817542  0.34752889  0.91902267    -0.14300
H3485       H  0.53601274  0.34713490  0.94919973     0.21100
H3486       H  0.52351255  0.30204861  0.90059147     0.17100
H3487       H  0.49623127  0.29133881  0.92140100     0.19600
H3488       H  0.56303280  0.35847715  0.92738304     0.13000
C3489       C  0.42749916  0.30858755  0.01715987     0.16800
C3490       C  0.41444370  0.31028839  0.03050511    -0.32200
C3491       C  0.41619856  0.32465208  0.04259687     0.21200
C3492       C  0.43051645  0.33663034  0.04171507     0.03400
C3493       C  0.44375428  0.33475563  0.02851414    -0.21900
C3494       C  0.44178315  0.32057772  0.01616971     0.12600
S3495       S  0.42711492  0.29267965  0.00063117    -0.05600
C3496       C  0.44633840  0.30233908  0.99213482    -0.09100
C3497       C  0.45268434  0.31703929  0.00181850    -0.25700
S3498       S  0.42966964  0.35368798  0.05711349    -0.02900
C3499       C  0.40973340  0.34464321  0.06453915    -0.16300
C3500       C  0.40426290  0.32914308  0.05576242    -0.14300
H3501       H  0.40313852  0.30109883  0.03113535     0.21100
H3502       H  0.45481706  0.34420831  0.02759989     0.17100
H3503       H  0.46448485  0.32486004  0.99840957     0.19600
H3504       H  0.39195413  0.32188260  0.05856961     0.13000
C3505       C  0.41211112  0.20925197  0.92871991     0.16800
C3506       C  0.41414594  0.22341938  0.94098948    -0.32200
C3507       C  0.42890646  0.23494784  0.93882434     0.21200
C3508       C  0.44119377  0.23251224  0.92510302     0.03400
C3509       C  0.43924810  0.21822980  0.91287865    -0.21900
C3510       C  0.42442546  0.20670317  0.91501999     0.12600
S3511       S  0.39454228  0.19441312  0.92854585    -0.05600
C3512       C  0.40389575  0.18466436  0.90985297    -0.09100
C3513       C  0.41980387  0.19248235  0.90416678    -0.25700
S3514       S  0.45798867  0.24827224  0.92469279    -0.02900
C3515       C  0.44832792  0.25818180  0.94324734    -0.16300
C3516       C  0.43293576  0.24959596  0.94926417    -0.14300
H3517       H  0.40449586  0.22552149  0.95162302     0.21100
H3518       H  0.44872801  0.21631603  0.90205928     0.17100
H3519       H  0.42717493  0.18835820  0.89235571     0.19600
H3520       H  0.42503822  0.25387579  0.96067440     0.13000
C3521       C  0.31881385  0.22819329  0.80319887     0.16800
C3522       C  0.33015732  0.21328151  0.80463959    -0.32200
C3523       C  0.33017959  0.20389081  0.82093373     0.21200
C3524       C  0.31928337  0.20901256  0.83511907     0.03400
C3525       C  0.30757796  0.22362088  0.83348654    -0.21900
C3526       C  0.30766266  0.23310150  0.81724460     0.12600
S3527       S  0.31769138  0.24203610  0.78501541    -0.05600
C3528       C  0.30180113  0.25441002  0.79633526    -0.09100
C3529       C  0.29772898  0.24805962  0.81332011    -0.25700
S3530       S  0.32225768  0.19674419  0.85423716    -0.02900
C3531       C  0.33823911  0.18456983  0.84293166    -0.16300
C3532       C  0.34098773  0.18969017  0.82529695    -0.14300
H3533       H  0.33892193  0.20945624  0.79371861     0.21100
H3534       H  0.29912102  0.22770644  0.84455544     0.17100
H3535       H  0.28821897  0.25420799  0.82240434     0.19600
H3536       H  0.35077805  0.18370552  0.81640687     0.13000
C3537       C  0.30951571  0.31739987  0.72384549     0.16800
C3538       C  0.31160184  0.32768133  0.70821074    -0.32200
C3539       C  0.32908367  0.32982003  0.70148379     0.21200
C3540       C  0.34383259  0.32218334  0.70999785     0.03400
C3541       C  0.34170791  0.31173766  0.72545584    -0.21900
C3542       C  0.32425433  0.30947160  0.73207721     0.12600
S3543       S  0.28958445  0.31361353  0.73458450    -0.05600
C3544       C  0.30126993  0.30096480  0.75009679    -0.09100
C3545       C  0.31957894  0.29987880  0.74699638    -0.25700
S3546       S  0.36398678  0.32677580  0.70011539    -0.02900
C3547       C  0.35241412  0.33891961  0.68418853    -0.16300
C3548       C  0.33394116  0.33938386  0.68655190    -0.14300
H3549       H  0.30014346  0.33383725  0.70165693     0.21100
H3550       H  0.35318392  0.30571124  0.73210295     0.17100
H3551       H  0.32904922  0.29274003  0.75545390     0.19600
H3552       H  0.32465073  0.34651742  0.67789895     0.13000
C3553       C  0.22798673  0.31724458  0.80255607     0.16800
C3554       C  0.21426499  0.32984393  0.80477806    -0.32200
C3555       C  0.20363012  0.32848246  0.82016417     0.21200
C3556       C  0.20635600  0.31502962  0.83275368     0.03400
C3557       C  0.22002960  0.30228110  0.83044841    -0.21900
C3558       C  0.23084593  0.30379723  0.81510801     0.12600
S3559       S  0.24282263  0.31733450  0.78521602    -0.05600
C3560       C  0.25325942  0.29917854  0.79498450    -0.09100
C3561       C  0.24534313  0.29329106  0.81079104    -0.25700
S3562       S  0.19235728  0.31620636  0.85086013    -0.02900
C3563       C  0.18291177  0.33501170  0.84130441    -0.16300
C3564       C  0.19015552  0.33996789  0.82498379    -0.14300
H3565       H  0.21220324  0.34048914  0.79509853     0.21100
H3566       H  0.22236929  0.29189317  0.84034205     0.17100
H3567       H  0.25017435  0.28222498  0.81889062     0.19600
H3568       H  0.18604957  0.35161570  0.81731780     0.13000
C3569       C  0.81895788  0.19401326  0.08030844     0.16800
C3570       C  0.81103746  0.21029454  0.07550606    -0.32200
C3571       C  0.79494726  0.20961900  0.06568852     0.21200
C3572       C  0.78666920  0.19348858  0.06119003     0.03400
C3573       C  0.79445036  0.17706985  0.06636160    -0.21900
C3574       C  0.81096186  0.17774443  0.07574807     0.12600
S3575       S  0.83917323  0.19227508  0.09103123    -0.05600
C3576       C  0.83724971  0.16929763  0.08908998    -0.09100
C3577       C  0.82145714  0.16342189  0.08078278    -0.25700
S3578       S  0.76825757  0.19586079  0.04733319    -0.02900
C3579       C  0.77227319  0.21871652  0.04730233    -0.16300
C3580       C  0.78667837  0.22400908  0.05797953    -0.14300
H3581       H  0.81758501  0.22297614  0.07857522     0.21100
H3582       H  0.78838830  0.16437104  0.06249215     0.17100
H3583       H  0.81797653  0.14946087  0.07845623     0.19600
H3584       H  0.79183287  0.23763311  0.05876684     0.13000
C3585       C  0.67075013  0.18223342  0.93671807     0.16800
C3586       C  0.67402289  0.19302876  0.95194562    -0.32200
C3587       C  0.69146935  0.20004512  0.95424859     0.21200
C3588       C  0.70494510  0.19630984  0.94198184     0.03400
C3589       C  0.70184522  0.18506029  0.92724219    -0.21900
C3590       C  0.68449124  0.17822694  0.92486945     0.12600
S3591       S  0.65031561  0.17354114  0.93046449    -0.05600
C3592       C  0.66060361  0.16434178  0.91182305    -0.09100
C3593       C  0.67884551  0.16779843  0.91079498    -0.25700
S3594       S  0.72461235  0.20734471  0.94577106    -0.02900
C3595       C  0.71483033  0.21705137  0.96426616    -0.16300
C3596       C  0.69721839  0.21178603  0.96741488    -0.14300
H3597       H  0.66334932  0.19627834  0.96122253     0.21100
H3598       H  0.71237737  0.18226557  0.91765267     0.17100
H3599       H  0.68748671  0.16308718  0.90011865     0.19600
H3600       H  0.68888539  0.21692683  0.97813311     0.13000
C3601       C  0.67972945  0.30402471  0.05136361     0.16800
C3602       C  0.66301805  0.31157806  0.05543876    -0.32200
C3603       C  0.66289429  0.32652275  0.06696232     0.21200
C3604       C  0.67864686  0.33348085  0.07434150     0.03400
C3605       C  0.69530955  0.32590369  0.07033548    -0.21900
C3606       C  0.69545072  0.31118439  0.05858867     0.12600
S3607       S  0.68299937  0.28673104  0.03656715    -0.05600
C3608       C  0.70575010  0.28959583  0.03988839    -0.09100
C3609       C  0.71039649  0.30295671  0.05204412    -0.25700
S3610       S  0.67572464  0.35173062  0.08788376    -0.02900
C3611       C  0.65305170  0.35002855  0.08343323    -0.16300
C3612       C  0.64810356  0.33603810  0.07212680    -0.14300
H3613       H  0.65071032  0.30631452  0.04956738     0.21100
H3614       H  0.70766313  0.33149003  0.07580457     0.17100
H3615       H  0.72406176  0.30702576  0.05521575     0.19600
H3616       H  0.63442655  0.33303363  0.06799081     0.13000
C3617       C  0.70820597  0.32018153  0.92822511     0.16800
C3618       C  0.69750819  0.32351599  0.91303818    -0.32200
C3619       C  0.68317642  0.33553982  0.91492432     0.21200
C3620       C  0.67973572  0.34407069  0.93114693     0.03400
C3621       C  0.69065650  0.34099518  0.94625276    -0.21900
C3622       C  0.70488388  0.32880126  0.94441341     0.12600
S3623       S  0.72492939  0.30455958  0.92919932    -0.05600
C3624       C  0.72737196  0.30949771  0.95173368    -0.09100
C3625       C  0.71603784  0.32293109  0.95788818    -0.25700
S3626       S  0.66132033  0.35774548  0.93078346    -0.02900
C3627       C  0.65831850  0.35186571  0.90856927    -0.16300
C3628       C  0.67095058  0.34004593  0.90187463    -0.14300
H3629       H  0.69991109  0.31662066  0.90044450     0.21100
H3630       H  0.68788547  0.34743772  0.95900570     0.17100
H3631       H  0.71508940  0.32723663  0.97177145     0.19600
H3632       H  0.67111260  0.33503092  0.88819451     0.13000
C3633       C  0.81453695  0.32974644  0.04605623     0.16800
C3634       C  0.81938459  0.34400790  0.05747732    -0.32200
C3635       C  0.83227869  0.34059413  0.07087759     0.21200
C3636       C  0.84022838  0.32384409  0.07263384     0.03400
C3637       C  0.83573193  0.30976642  0.06093421    -0.21900
C3638       C  0.82266246  0.31309173  0.04774157     0.12600
S3639       S  0.79744333  0.33031220  0.03060272    -0.05600
C3640       C  0.80116744  0.30779782  0.02661795    -0.09100
C3641       C  0.81530377  0.30057694  0.03639230    -0.25700
S3642       S  0.85497781  0.32211186  0.09018908    -0.02900
C3643       C  0.85038089  0.34418032  0.09519708    -0.16300
C3644       C  0.83816217  0.35240343  0.08380144    -0.14300
H3645       H  0.81289611  0.35696729  0.05642600     0.21100
H3646       H  0.84168764  0.29659656  0.06245891     0.17100
H3647       H  0.81903855  0.28652094  0.03630964     0.19600
H3648       H  0.83382861  0.36622807  0.08499800     0.13000
C3649       C  0.79370777  0.07580411  0.18675840     0.16800
C3650       C  0.80502125  0.09061097  0.18390117    -0.32200
C3651       C  0.81659916  0.08995679  0.16912813     0.21200
C3652       C  0.81654921  0.07543160  0.15738988     0.03400
C3653       C  0.80505930  0.06069875  0.16013405    -0.21900
C3654       C  0.79381799  0.06113198  0.17521460     0.12600
S3655       S  0.78030139  0.07321790  0.20505503    -0.05600
C3656       C  0.77517065  0.05187253  0.19747702    -0.09100
C3657       C  0.78303816  0.04738759  0.18120212    -0.25700
S3658       S  0.83180651  0.07712556  0.14039874    -0.02900
C3659       C  0.83843326  0.09748212  0.14934615    -0.16300
C3660       C  0.82922449  0.10262541  0.16464224    -0.14300
H3661       H  0.80524845  0.10186825  0.19316395     0.21100
H3662       H  0.80530153  0.04915510  0.15124042     0.17100
H3663       H  0.78197069  0.03434579  0.17477200     0.19600
H3664       H  0.83161642  0.11500414  0.17198521     0.13000
C3665       C  0.66281589  0.06998356  0.31303723     0.16800
C3666       C  0.66558226  0.05721770  0.29940309    -0.32200
C3667       C  0.68132843  0.05873016  0.28918311     0.21200
C3668       C  0.69356275  0.07254624  0.29218691     0.03400
C3669       C  0.69076698  0.08532206  0.30573947    -0.21900
C3670       C  0.67526003  0.08358484  0.31619274     0.12600
S3671       S  0.64472767  0.07042286  0.32710440    -0.05600
C3672       C  0.65418416  0.08898283  0.33740916    -0.09100
C3673       C  0.67046361  0.09442755  0.33027430    -0.25700
S3674       S  0.71243130  0.07137345  0.27937212    -0.02900
C3675       C  0.70415105  0.05166703  0.27024594    -0.16300
C3676       C  0.68725109  0.04677586  0.27644071    -0.14300
H3677       H  0.65609439  0.04635558  0.29713942     0.21100
H3678       H  0.70051004  0.09588364  0.30834249     0.17100
H3679       H  0.67814469  0.10594674  0.33493351     0.19600
H3680       H  0.68029697  0.03445086  0.27284693     0.13000
C3681       C  0.68285036  0.95376837  0.18536752     0.16800
C3682       C  0.66834955  0.94244272  0.18087981    -0.32200
C3683       C  0.67091196  0.92985905  0.16702277     0.21200
C3684       C  0.68713802  0.92867748  0.15799528     0.03400
C3685       C  0.70148448  0.94016273  0.16229915    -0.21900
C3686       C  0.69896506  0.95265694  0.17616972     0.12600
S3687       S  0.68309659  0.96892561  0.20269397    -0.05600
C3688       C  0.70517617  0.97372270  0.19749856    -0.09100
C3689       C  0.71171974  0.96419448  0.18291115    -0.25700
S3690       S  0.68787487  0.91220092  0.14200937    -0.02900
C3691       C  0.66607701  0.90690350  0.14744797    -0.16300
C3692       C  0.65867472  0.91738051  0.16092280    -0.14300
H3693       H  0.65578410  0.94313668  0.18811866     0.21100
H3694       H  0.71420570  0.93915534  0.15537338     0.17100
H3695       H  0.72541577  0.96493590  0.17809467     0.19600
H3696       H  0.64514116  0.91584328  0.16599421     0.13000
C3697       C  0.81295330  0.04148119  0.31297986     0.16800
C3698       C  0.82036665  0.04797664  0.32920729    -0.32200
C3699       C  0.82973959  0.06445615  0.32870860     0.21200
C3700       C  0.83210760  0.07366329  0.31270513     0.03400
C3701       C  0.82498617  0.06707194  0.29658493    -0.21900
C3702       C  0.81517910  0.05103625  0.29718115     0.12600
S3703       S  0.79935565  0.02288089  0.31069001    -0.05600
C3704       C  0.79628791  0.02863747  0.28843760    -0.09100
C3705       C  0.80576741  0.04373942  0.28317467    -0.25700
S3706       S  0.84320365  0.09362527  0.31469622    -0.02900
C3707       C  0.84436923  0.08993769  0.33746883    -0.16300
C3708       C  0.83684560  0.07378350  0.34307451    -0.14300
H3709       H  0.81831168  0.04090994  0.34173058     0.21100
H3710       H  0.82640715  0.07452382  0.28418840     0.17100
H3711       H  0.80502328  0.04966834  0.26990576     0.19600
H3712       H  0.83639048  0.06931305  0.35690121     0.13000
C3713       C  0.05001525  0.92746173  0.44713132     0.16800
C3714       C  0.06225934  0.91344555  0.44448871    -0.32200
C3715       C  0.07389597  0.91471538  0.42979162     0.21200
C3716       C  0.07303320  0.92903106  0.41791754     0.03400
C3717       C  0.06047876  0.94282554  0.42031170    -0.21900
C3718       C  0.04918458  0.94181084  0.43530837     0.12600
S3719       S  0.03649268  0.92959020  0.46545280    -0.05600
C3720       C  0.02996901  0.95026470  0.45736531    -0.09100
C3721       C  0.03749189  0.95482034  0.44097408    -0.25700
S3722       S  0.08865811  0.92833211  0.40120246    -0.02900
C3723       C  0.09653074  0.90868058  0.41047110    -0.16300
C3724       C  0.08735689  0.90294274  0.42554137    -0.14300
H3725       H  0.06318041  0.90240666  0.45389473     0.21100
H3726       H  0.06000118  0.95419177  0.41127031     0.17100
H3727       H  0.03550492  0.96752882  0.43420490     0.19600
H3728       H  0.09033827  0.89075754  0.43287769     0.13000
C3729       C  0.43666588  0.83512388  0.54578366     0.16800
C3730       C  0.45059922  0.83219240  0.53356132    -0.32200
C3731       C  0.44878513  0.81773285  0.52155369     0.21200
C3732       C  0.43382152  0.80656599  0.52173518     0.03400
C3733       C  0.41985015  0.80948304  0.53399375    -0.21900
C3734       C  0.42160947  0.82404996  0.54594010     0.12600
S3735       S  0.43620901  0.85224439  0.56110117    -0.05600
C3736       C  0.41547217  0.84449547  0.56769371    -0.09100
C3737       C  0.40932984  0.82940989  0.55853669    -0.25700
S3738       S  0.43410548  0.79000878  0.50573338    -0.02900
C3739       C  0.45451333  0.79837953  0.49859317    -0.16300
C3740       C  0.46069402  0.81308360  0.50837927    -0.14300
H3741       H  0.46226720  0.84093845  0.53328234     0.21100
H3742       H  0.40804701  0.80091603  0.53407589     0.17100
H3743       H  0.39648714  0.82293183  0.56082416     0.19600
H3744       H  0.47311665  0.82023560  0.50578658     0.13000
C3745       C  0.33118551  0.94556881  0.51725509     0.16800
C3746       C  0.34396840  0.94369988  0.53105704    -0.32200
C3747       C  0.34209185  0.92903766  0.54269604     0.21200
C3748       C  0.32802603  0.91685416  0.54078533     0.03400
C3749       C  0.31513626  0.91885242  0.52711501    -0.21900
C3750       C  0.31710297  0.93342204  0.51537050     0.12600
S3751       S  0.33152534  0.96198041  0.50129202    -0.05600
C3752       C  0.31251594  0.95235819  0.49188247    -0.09100
C3753       C  0.30629595  0.93728622  0.50088275    -0.25700
S3754       S  0.32850824  0.89954360  0.55577994    -0.02900
C3755       C  0.34786256  0.90880321  0.56463264    -0.16300
C3756       C  0.35351091  0.92452129  0.55647946    -0.14300
H3757       H  0.35506643  0.95307657  0.53246215     0.21100
H3758       H  0.30423687  0.90927783  0.52549976     0.17100
H3759       H  0.29465363  0.92940909  0.49688953     0.19600
H3760       H  0.36553349  0.93194577  0.56019399     0.13000
C3761       C  0.32993457  0.02178400  0.43420905     0.16800
C3762       C  0.34209344  0.03593153  0.43137790    -0.32200
C3763       C  0.33995914  0.04618718  0.41572386     0.21200
C3764       C  0.32617318  0.04268654  0.40353438     0.03400
C3765       C  0.31389815  0.02865084  0.40647189    -0.21900
C3766       C  0.31619231  0.01822171  0.42200490     0.12600
S3767       S  0.33065329  0.00740734  0.45203292    -0.05600
C3768       C  0.31227826  0.99635885  0.44295724    -0.09100
C3769       C  0.30600076  0.00364717  0.42695088    -0.25700
S3770       S  0.32616807  0.05636031  0.38511504    -0.02900
C3771       C  0.34496177  0.06681430  0.39390937    -0.16300
C3772       C  0.35078578  0.06007622  0.41027575    -0.14300
H3773       H  0.35292014  0.03864233  0.44082177     0.21100
H3774       H  0.30320673  0.02579821  0.39691691     0.17100
H3775       H  0.29466360  0.99849885  0.41927891     0.19600
H3776       H  0.36244935  0.06495328  0.41762465     0.13000
C3777       C  0.23773352  0.94317775  0.42920139     0.16800
C3778       C  0.22311598  0.94086645  0.41740446    -0.32200
C3779       C  0.21205544  0.92577751  0.41986163     0.21200
C3780       C  0.21528118  0.91360027  0.43358252     0.03400
C3781       C  0.22979991  0.91602772  0.44551186    -0.21900
C3782       C  0.24099210  0.93103049  0.44292644     0.12600
S3783       S  0.25315250  0.96016189  0.42790319    -0.05600
C3784       C  0.26426435  0.95080568  0.44598603    -0.09100
C3785       C  0.25617284  0.93537202  0.45266704    -0.25700
S3786       S  0.20083550  0.89567369  0.43373633    -0.02900
C3787       C  0.19041532  0.90468735  0.41513556    -0.16300
C3788       C  0.19772882  0.92075688  0.40925016    -0.14300
H3789       H  0.22068557  0.95023157  0.40655349     0.21100
H3790       H  0.23247804  0.90643649  0.45610267     0.17100
H3791       H  0.26126121  0.92759442  0.46386569     0.19600
H3792       H  0.19317228  0.92799701  0.39747732     0.13000
C3793       C  0.67259169  0.94601179  0.32896770     0.16800
C3794       C  0.67892986  0.96063115  0.31902345    -0.32200
C3795       C  0.69467190  0.95820027  0.30906576     0.21200
C3796       C  0.70405456  0.94213967  0.30932386     0.03400
C3797       C  0.69760533  0.92744451  0.31917884    -0.21900
C3798       C  0.68154875  0.92970993  0.32876139     0.12600
S3799       S  0.65332028  0.94602083  0.34127859    -0.05600
C3800       C  0.65676912  0.92346745  0.34544647    -0.09100
C3801       C  0.67252135  0.91672425  0.33817476    -0.25700
S3802       S  0.72298719  0.94210684  0.29628790    -0.02900
C3803       C  0.71778436  0.96375695  0.29007409    -0.16300
C3804       C  0.70237808  0.97053658  0.29793199    -0.14300
H3805       H  0.67170165  0.97323600  0.31875017     0.21100
H3806       H  0.70457726  0.91469956  0.31907908     0.17100
H3807       H  0.67680831  0.90287671  0.33922963     0.19600
H3808       H  0.69700197  0.98382022  0.29546880     0.13000
C3809       C  0.54701967  0.82451722  0.41615964     0.16800
C3810       C  0.53488591  0.81032106  0.41869782    -0.32200
C3811       C  0.52520754  0.80997502  0.43480377     0.21200
C3812       C  0.52761357  0.82303396  0.44794475     0.03400
C3813       C  0.54009061  0.83700537  0.44560348    -0.21900
C3814       C  0.54961368  0.83749018  0.42937442     0.12600
S3815       S  0.55918506  0.82795163  0.39706126    -0.05600
C3816       C  0.56789097  0.84701308  0.40701915    -0.09100
C3817       C  0.56171394  0.85040519  0.42422428    -0.25700
S3818       S  0.51348757  0.82094588  0.46587425    -0.02900
C3819       C  0.50418595  0.80233325  0.45546930    -0.16300
C3820       C  0.51197061  0.79795724  0.43914645    -0.14300
H3821       H  0.53269561  0.80026759  0.40834637     0.21100
H3822       H  0.54190441  0.84733907  0.45574336     0.17100
H3823       H  0.56573928  0.86182097  0.43238958     0.19600
H3824       H  0.50765015  0.78699747  0.43050731     0.13000
C3825       C  0.51307599  0.92897647  0.31102142     0.16800
C3826       C  0.52548635  0.91571435  0.31581912    -0.32200
C3827       C  0.53896823  0.92033262  0.32823673     0.21200
C3828       C  0.54008890  0.93740745  0.33570523     0.03400
C3829       C  0.52754658  0.95070993  0.33098642    -0.21900
C3830       C  0.51404113  0.94607533  0.31843878     0.12600
S3831       S  0.49617344  0.92603739  0.29566919    -0.05600
C3832       C  0.49026042  0.94814309  0.29905122    -0.09100
C3833       C  0.50085085  0.95713280  0.31170865    -0.25700
S3834       S  0.55759912  0.94012390  0.35057566    -0.02900
C3835       C  0.56326637  0.91802435  0.34660146    -0.16300
C3836       C  0.55220181  0.90918642  0.33443954    -0.14300
H3837       H  0.52475326  0.90237355  0.30999509     0.21100
H3838       H  0.52834894  0.96408129  0.33672786     0.17100
H3839       H  0.49926033  0.97110704  0.31545689     0.19600
H3840       H  0.55371993  0.89525859  0.33048855     0.13000
C3841       C  0.43753615  0.92552367  0.22572741     0.16800
C3842       C  0.43373856  0.91142685  0.21370786    -0.32200
C3843       C  0.42131146  0.91465240  0.19981753     0.21200
C3844       C  0.41303047  0.93120809  0.19788966     0.03400
C3845       C  0.41667544  0.94526408  0.21005571    -0.21900
C3846       C  0.42908689  0.94200520  0.22400235     0.12600
S3847       S  0.45234350  0.92432733  0.24336708    -0.05600
C3848       C  0.44695211  0.94621489  0.24871958    -0.09100
C3849       C  0.43438702  0.95390667  0.23718985    -0.25700
S3850       S  0.39845403  0.93236035  0.17999959    -0.02900
C3851       C  0.40351936  0.91027590  0.17521820    -0.16300
C3852       C  0.41581174  0.90257060  0.18691934    -0.14300
H3853       H  0.44021064  0.89849317  0.21510982     0.21100
H3854       H  0.41013553  0.95816967  0.20871132     0.17100
H3855       H  0.42937614  0.96749852  0.23839136     0.19600
H3856       H  0.42032306  0.88877782  0.18609210     0.13000
C3857       C  0.43023866  0.02433752  0.29522116     0.16800
C3858       C  0.41723871  0.03780704  0.29727721    -0.32200
C3859       C  0.41971648  0.05028648  0.31129252     0.21200
C3860       C  0.43472940  0.04967964  0.32244421     0.03400
C3861       C  0.44784029  0.03637238  0.32021124    -0.21900
C3862       C  0.44511277  0.02360552  0.30652918     0.12600
S3863       S  0.42893453  0.00706564  0.28006699    -0.05600
C3864       C  0.44842970  0.99851137  0.28931556    -0.09100
C3865       C  0.45562212  0.00885736  0.30317991    -0.25700
S3866       S  0.43478319  0.06531812  0.33932276    -0.02900
C3867       C  0.41422973  0.07254916  0.33149073    -0.16300
C3868       C  0.40788149  0.06344014  0.31642638    -0.14300
H3869       H  0.40538853  0.03814763  0.28874740     0.21100
H3870       H  0.45933580  0.03560566  0.32918400     0.17100
H3871       H  0.46761262  0.00549216  0.31077470     0.19600
H3872       H  0.39499231  0.06587132  0.31004595     0.13000
C3873       C  0.45286272  0.73077514  0.42810532     0.16800
C3874       C  0.45225659  0.71679253  0.41541001    -0.32200
C3875       C  0.43612150  0.70707865  0.41367506     0.21200
C3876       C  0.42125524  0.71115686  0.42408136     0.03400
C3877       C  0.42191422  0.72504374  0.43682681    -0.21900
C3878       C  0.43804397  0.73469716  0.43861634     0.12600
S3879       S  0.47100913  0.74436893  0.43206665    -0.05600
C3880       C  0.45857254  0.75529937  0.44823773    -0.09100
C3881       C  0.44125216  0.74870337  0.45024088    -0.25700
S3882       S  0.40270666  0.69833351  0.41954447    -0.02900
C3883       C  0.41510153  0.68731097  0.40351445    -0.16300
C3884       C  0.43268026  0.69328261  0.40184264    -0.14300
H3885       H  0.46379652  0.71371390  0.40716514     0.21100
H3886       H  0.41030340  0.72827116  0.44491345     0.17100
H3887       H  0.43146622  0.75398373  0.45957066     0.19600
H3888       H  0.44219948  0.68812089  0.39217918     0.13000
C3889       C  0.21354900  0.81978001  0.33750127     0.16800
C3890       C  0.22718366  0.80734378  0.33390189    -0.32200
C3891       C  0.23676201  0.80933520  0.31783187     0.21200
C3892       C  0.23285463  0.82295534  0.30576769     0.03400
C3893       C  0.21902531  0.83520585  0.30922565    -0.21900
C3894       C  0.20955728  0.83333480  0.32536612     0.12600
S3895       S  0.20099622  0.82029368  0.35667302    -0.05600
C3896       C  0.19028196  0.83891068  0.34817440    -0.09100
C3897       C  0.19611014  0.84430259  0.33139174    -0.25700
S3898       S  0.24658747  0.82354921  0.28743116    -0.02900
C3899       C  0.25779309  0.80529514  0.29614658    -0.16300
C3900       C  0.25097955  0.79910598  0.31233658    -0.14300
H3901       H  0.23043752  0.79681028  0.34337843     0.21100
H3902       H  0.21601556  0.84595291  0.29991427     0.17100
H3903       H  0.19094323  0.85580752  0.32416576     0.19600
H3904       H  0.25637629  0.78791860  0.31989813     0.13000
C3905       C  0.31716144  0.73981008  0.31867665     0.16800
C3906       C  0.32078657  0.72748158  0.33237778    -0.32200
C3907       C  0.33405669  0.71460068  0.32917561     0.21200
C3908       C  0.34323609  0.71390482  0.31300224     0.03400
C3909       C  0.33967474  0.72631485  0.29933844    -0.21900
C3910       C  0.32649088  0.73930408  0.30259648     0.12600
S3911       S  0.30130929  0.75620655  0.31983322    -0.05600
C3912       C  0.30734026  0.76254937  0.29843806    -0.09100
C3913       C  0.32101319  0.75244411  0.29095268    -0.25700
S3914       S  0.35882172  0.69720384  0.31172788    -0.02900
C3915       C  0.35304949  0.69137409  0.33327907    -0.16300
C3916       C  0.33966921  0.70166254  0.34091927    -0.14300
H3917       H  0.31357461  0.72790555  0.34497164     0.21100
H3918       H  0.34686275  0.72586877  0.28673352     0.17100
H3919       H  0.32640030  0.75437162  0.27760391     0.19600
H3920       H  0.33449193  0.69982160  0.35436407     0.13000
C3921       C  0.30649789  0.81775987  0.21854396     0.16800
C3922       C  0.30684968  0.82782568  0.20265342    -0.32200
C3923       C  0.32320890  0.82897472  0.19344920     0.21200
C3924       C  0.33852790  0.82034763  0.19968184     0.03400
C3925       C  0.33807212  0.80995099  0.21535876    -0.21900
C3926       C  0.32173932  0.80893776  0.22465056     0.12600
S3927       S  0.28836186  0.81589746  0.23239979    -0.05600
C3928       C  0.30141502  0.80304751  0.24658402    -0.09100
C3929       C  0.31884359  0.80029352  0.24062950    -0.25700
S3930       S  0.35739204  0.82458947  0.18739857    -0.02900
C3931       C  0.34445930  0.83806358  0.17374430    -0.16300
C3932       C  0.32651113  0.83905284  0.17843244    -0.14300
H3933       H  0.29502855  0.83490130  0.19796089     0.21100
H3934       H  0.35005541  0.80339030  0.22039075     0.17100
H3935       H  0.32903579  0.79285762  0.24790086     0.19600
H3936       H  0.31664646  0.84735388  0.17168169     0.13000
C3937       C  0.42652922  0.06752221  0.08577806     0.16800
C3938       C  0.43887533  0.05378316  0.08225773    -0.32200
C3939       C  0.45077166  0.05620319  0.06789148     0.21200
C3940       C  0.45052187  0.07169141  0.05758636     0.03400
C3941       C  0.43837209  0.08557405  0.06129295    -0.21900
C3942       C  0.42634355  0.08306828  0.07553299     0.12600
S3943       S  0.41057469  0.06685207  0.10218909    -0.05600
C3944       C  0.40360262  0.08770302  0.09514231    -0.09100
C3945       C  0.41322228  0.09477258  0.08092250    -0.25700
S3946       S  0.46509885  0.07143046  0.03992422    -0.02900
C3947       C  0.47156691  0.05016295  0.04639325    -0.16300
C3948       C  0.46293186  0.04388817  0.06165150    -0.14300
H3949       H  0.43893768  0.04156346  0.09012179     0.21100
H3950       H  0.43801165  0.09760729  0.05315505     0.17100
H3951       H  0.41075016  0.10778393  0.07493867     0.19600
H3952       H  0.46472098  0.03061497  0.06730225     0.13000
C3953       C  0.59215146  0.06848594  0.93538710     0.16800
C3954       C  0.58703450  0.05332714  0.94521367    -0.32200
C3955       C  0.57479141  0.05577863  0.95923356     0.21200
C3956       C  0.56808918  0.07261635  0.96348026     0.03400
C3957       C  0.57349555  0.08787798  0.95386823    -0.21900
C3958       C  0.58553105  0.08536989  0.93963289     0.12600
S3959       S  0.60591259  0.06801076  0.91715173    -0.05600
C3960       C  0.60257106  0.09077488  0.91507162    -0.09100
C3961       C  0.59157452  0.09829109  0.92803059    -0.25700
S3962       S  0.55178281  0.07237765  0.97955329    -0.02900
C3963       C  0.55381558  0.04931083  0.98032657    -0.16300
C3964       C  0.56689969  0.04242017  0.96906414    -0.14300
H3965       H  0.59187298  0.04008621  0.94165293     0.21100
H3966       H  0.56801058  0.10099808  0.95687743     0.17100
H3967       H  0.58795431  0.11235999  0.92865924     0.19600
H3968       H  0.56940343  0.02823368  0.96700555     0.13000
C3969       C  0.58717600  0.92888797  0.06309716     0.16800
C3970       C  0.58286215  0.94096876  0.04932597    -0.32200
C3971       C  0.56816038  0.95241403  0.05194517     0.21200
C3972       C  0.55821332  0.95198767  0.06763200     0.03400
C3973       C  0.56268545  0.94006517  0.08155279    -0.21900
C3974       C  0.57733931  0.92850002  0.07887255     0.12600
S3975       S  0.60417942  0.91352354  0.06219671    -0.05600
C3976       C  0.59810446  0.90658814  0.08335846    -0.09100
C3977       C  0.58359832  0.91570256  0.09059895    -0.25700
S3978       S  0.54007183  0.96608061  0.06754188    -0.02900
C3979       C  0.54585500  0.97244842  0.04604653    -0.16300
C3980       C  0.56127821  0.96424706  0.03963525    -0.14300
H3981       H  0.59042092  0.94118595  0.03693575     0.21100
H3982       H  0.55485843  0.93955460  0.09376413     0.17100
H3983       H  0.57798599  0.91307879  0.10372914     0.19600
H3984       H  0.56665939  0.96612859  0.02627606     0.13000
C3985       C  0.43483949  0.93899559  0.03632289     0.16800
C3986       C  0.42742181  0.92271491  0.04230784    -0.32200
C3987       C  0.41680517  0.92315763  0.05785534     0.21200
C3988       C  0.41326686  0.93918940  0.06669402     0.03400
C3989       C  0.42052123  0.95545132  0.06063780    -0.21900
C3990       C  0.43159541  0.95490750  0.04547648     0.12600
S3991       S  0.44957138  0.94110201  0.01884705    -0.05600
C3992       C  0.45172840  0.96350044  0.02430368    -0.09100
C3993       C  0.44130509  0.96897029  0.03869372    -0.25700
S3994       S  0.40087745  0.93692199  0.08574605    -0.02900
C3995       C  0.40099492  0.91401337  0.08223625    -0.16300
C3996       C  0.40968796  0.90861429  0.06668665    -0.14300
H3997       H  0.43040033  0.91016281  0.03557746     0.21100
H3998       H  0.41823718  0.96787984  0.06787234     0.17100
H3999       H  0.44150501  0.98237584  0.04442079     0.19600
H4000       H  0.41129997  0.89476801  0.06249779     0.13000
C4001       C  0.41899310  0.06675918  0.92266070     0.16800
C4002       C  0.42256773  0.05178054  0.93350475    -0.32200
C4003       C  0.44056511  0.04840944  0.93815192     0.21200
C4004       C  0.45433926  0.05954030  0.93231276     0.03400
C4005       C  0.45079465  0.07438883  0.92136226    -0.21900
C4006       C  0.43284907  0.07771918  0.91671308     0.12600
S4007       S  0.39805452  0.07355432  0.91604618    -0.05600
C4008       C  0.40814914  0.09136018  0.90527393    -0.09100
C4009       C  0.42671844  0.09179192  0.90663370    -0.25700
S4010       S  0.47503312  0.05419009  0.94056338    -0.02900
C4011       C  0.46512110  0.03668052  0.95196855    -0.16300
C4012       C  0.44673055  0.03505303  0.94929322    -0.14300
H4013       H  0.41177547  0.04332295  0.93836721     0.21100
H4014       H  0.46152472  0.08319300  0.91697758     0.17100
H4015       H  0.43520271  0.10208266  0.90082673     0.19600
H4016       H  0.43820993  0.02541385  0.95606161     0.13000
C4017       C  0.06557929  0.82593663  0.16887509     0.16800
C4018       C  0.04997927  0.81756900  0.17505777    -0.32200
C4019       C  0.05193057  0.80179163  0.18504297     0.21200
C4020       C  0.06862800  0.79435751  0.18862217     0.03400
C4021       C  0.08434131  0.80260559  0.18211920    -0.21900
C4022       C  0.08239076  0.81864878  0.17230320     0.12600
S4023       S  0.06585328  0.84568874  0.15733235    -0.05600
C4024       C  0.08893087  0.84437808  0.15721514    -0.09100
C4025       C  0.09591595  0.82918802  0.16550531    -0.25700
S4026       S  0.06784682  0.77600664  0.20259147    -0.02900
C4027       C  0.04484242  0.77868494  0.20359225    -0.16300
C4028       C  0.03836711  0.79283031  0.19342762    -0.14300
H4029       H  0.03687106  0.82342414  0.17266686     0.21100
H4030       H  0.09749336  0.79712346  0.18507759     0.17100
H4031       H  0.11010849  0.82612395  0.16652253     0.19600
H4032       H  0.02445573  0.79711655  0.19321586     0.13000
C4033       C  0.94085769  0.71027877  0.31890571     0.16800
C4034       C  0.93694693  0.69913951  0.33353635    -0.32200
C4035       C  0.92271522  0.68686334  0.33153957     0.21200
C4036       C  0.91275271  0.68579253  0.31572621     0.03400
C4037       C  0.91644437  0.69716826  0.30125167    -0.21900
C4038       C  0.93072422  0.70936944  0.30320801     0.12600
S4039       S  0.95870800  0.72470596  0.31792079    -0.05600
C4040       C  0.95251262  0.72948526  0.29607407    -0.09100
C4041       C  0.93717494  0.72056322  0.29016139    -0.25700
S4042       S  0.89637902  0.66967290  0.31571822    -0.02900
C4043       C  0.90286786  0.66453756  0.33731606    -0.16300
C4044       C  0.91703548  0.67467281  0.34405915    -0.14300
H4045       H  0.94493180  0.69969267  0.34575454     0.21100
H4046       H  0.90878849  0.69625746  0.28884516     0.17100
H4047       H  0.93176145  0.72126686  0.27663006     0.19600
H4048       H  0.92275705  0.67322005  0.35739708     0.13000
C4049       C  0.94121085  0.67082790  0.16898410     0.16800
C4050       C  0.95661927  0.67458451  0.17943281    -0.32200
C4051       C  0.95919437  0.69237077  0.18540239     0.21200
C4052       C  0.94707377  0.70576704  0.18085552     0.03400
C4053       C  0.93201290  0.70212302  0.17007077    -0.21900
C4054       C  0.92928029  0.68437356  0.16443585     0.12600
S4055       S  0.93462065  0.64991987  0.16180396    -0.05600
C4056       C  0.91553159  0.65961673  0.15284994    -0.09100
C4057       C  0.91465858  0.67807223  0.15506743    -0.25700
S4058       S  0.95123252  0.72596714  0.19077584    -0.02900
C4059       C  0.96954683  0.71645470  0.20130703    -0.16300
C4060       C  0.97239274  0.69852796  0.19700800    -0.14300
H4061       H  0.96578364  0.66399779  0.18332895     0.21100
H4062       H  0.92239747  0.71254723  0.16686463     0.17100
H4063       H  0.90356911  0.68634053  0.15054820     0.19600
H4064       H  0.98274252  0.69020783  0.20295253     0.13000
C4065       C  0.07657121  0.83484591  0.32008256     0.16800
C4066       C  0.06586106  0.83153510  0.30489574    -0.32200
C4067       C  0.05307430  0.81772243  0.30598473     0.21200
C4068       C  0.05098720  0.80764496  0.32148828     0.03400
C4069       C  0.06156991  0.81108203  0.33675797    -0.21900
C4070       C  0.07440155  0.82485974  0.33565343     0.12600
S4071       S  0.09314134  0.85071346  0.32128136    -0.05600
C4072       C  0.09708772  0.84380345  0.34296197    -0.09100
C4073       C  0.08617193  0.83000353  0.34891168    -0.25700
S4074       S  0.03557222  0.79068680  0.31964729    -0.02900
C4075       C  0.03198481  0.79719691  0.29772139    -0.16300
C4076       C  0.04205761  0.81192197  0.29236541    -0.14300
H4077       H  0.06761703  0.83918935  0.29267082     0.21100
H4078       H  0.06009998  0.80315448  0.34884495     0.17100
H4079       H  0.08689548  0.82408327  0.36217452     0.19600
H4080       H  0.04199960  0.81751709  0.27894066     0.13000
C4081       C  0.04644436  0.68394029  0.30122697     0.16800
C4082       C  0.04979892  0.67365174  0.31661228    -0.32200
C4083       C  0.06756618  0.66840085  0.31995692     0.21200
C4084       C  0.08133971  0.67286189  0.30828918     0.03400
C4085       C  0.07788588  0.68276429  0.29261176    -0.21900
C4086       C  0.06013871  0.68833133  0.28942049     0.12600
S4087       S  0.02635659  0.69367925  0.29636988    -0.05600
C4088       C  0.03642229  0.70389928  0.27826553    -0.09100
C4089       C  0.05436911  0.69960015  0.27594390    -0.25700
S4090       S  0.10215865  0.66619629  0.31537176    -0.02900
C4091       C  0.09219980  0.65737859  0.33428181    -0.16300
C4092       C  0.07368852  0.65943194  0.33484454    -0.14300
H4093       H  0.03915441  0.67056850  0.32599263     0.21100
H4094       H  0.08868112  0.68658637  0.28368990     0.17100
H4095       H  0.06302433  0.70552769  0.26590794     0.19600
H4096       H  0.06524898  0.65490711  0.34575626     0.13000
C4097       C  0.81205819  0.71542927  0.43211313     0.16800
C4098       C  0.82798818  0.70726230  0.42621079    -0.32200
C4099       C  0.82633104  0.69192798  0.41519816     0.21200
C4100       C  0.80961099  0.68530631  0.41000312     0.03400
C4101       C  0.79381701  0.69359627  0.41563245    -0.21900
C4102       C  0.79545086  0.70859583  0.42689193     0.12600
S4103       S  0.81081083  0.73268568  0.44740684    -0.05600
C4104       C  0.78774927  0.73013368  0.44701104    -0.09100
C4105       C  0.78156469  0.71704529  0.43522564    -0.25700
S4106       S  0.81016862  0.66617168  0.39741394    -0.02900
C4107       C  0.83320794  0.66684060  0.39930975    -0.16300
C4108       C  0.84002841  0.68134905  0.40897592    -0.14300
H4109       H  0.84103122  0.71217109  0.43058836     0.21100
H4110       H  0.78076599  0.68813722  0.41198454     0.17100
H4111       H  0.76761330  0.71297164  0.43387679     0.19600
H4112       H  0.85417713  0.68371675  0.41163008     0.13000
C4113       C  0.70716436  0.82257143  0.43463325     0.16800
C4114       C  0.70130850  0.83204920  0.41938546    -0.32200
C4115       C  0.68510340  0.84163429  0.42064498     0.21200
C4116       C  0.67557765  0.84237487  0.43659403     0.03400
C4117       C  0.68149208  0.83308276  0.45183711    -0.21900
C4118       C  0.69723980  0.82292404  0.45034059     0.12600
S4119       S  0.72545521  0.80860065  0.43545890    -0.05600
C4120       C  0.71915159  0.80272747  0.45690942    -0.09100
C4121       C  0.70400542  0.81155573  0.46307869    -0.25700
S4122       S  0.65582227  0.85383600  0.43524610    -0.02900
C4123       C  0.65988583  0.85695507  0.41265427    -0.16300
C4124       C  0.67616598  0.85005034  0.40683428    -0.14300
H4125       H  0.70861106  0.83131137  0.40686393     0.21100
H4126       H  0.67370071  0.83309002  0.46408757     0.17100
H4127       H  0.69786635  0.80924355  0.47603898     0.19600
H4128       H  0.68074968  0.85039204  0.39305450     0.13000
C4129       C  0.67382140  0.79565814  0.55342554     0.16800
C4130       C  0.65940580  0.80721353  0.55690797    -0.32200
C4131       C  0.66050576  0.81809600  0.57229789     0.21200
C4132       C  0.67519016  0.81733142  0.58386908     0.03400
C4133       C  0.68953707  0.80565793  0.58046652    -0.21900
C4134       C  0.68852689  0.79491076  0.56495553     0.12600
S4135       S  0.67574989  0.78260648  0.53464404    -0.05600
C4136       C  0.69670226  0.77615743  0.54225468    -0.09100
C4137       C  0.70162893  0.78359999  0.55871195    -0.25700
S4138       S  0.67408610  0.83179544  0.60168593    -0.02900
C4139       C  0.65367139  0.83896521  0.59340956    -0.16300
C4140       C  0.64812248  0.83057897  0.57766582    -0.14300
H4141       H  0.64803006  0.80800428  0.54778466     0.21100
H4142       H  0.70114463  0.80524217  0.58932148     0.17100
H4143       H  0.71456085  0.78173139  0.56520893     0.19600
H4144       H  0.63569083  0.83346523  0.57060212     0.13000
C4145       C  0.67670355  0.69300396  0.44643567     0.16800
C4146       C  0.66338029  0.68814178  0.43388724    -0.32200
C4147       C  0.66551416  0.67183721  0.42462130     0.21200
C4148       C  0.68024874  0.66084875  0.42764613     0.03400
C4149       C  0.69340262  0.66557745  0.44036901    -0.21900
C4150       C  0.69125906  0.68185736  0.44964299     0.12600
S4151       S  0.67752407  0.71293982  0.45795775    -0.05600
C4152       C  0.69780504  0.70622936  0.46704202    -0.09100
C4153       C  0.70321396  0.68922924  0.46163670    -0.25700
S4154       S  0.68075507  0.64197446  0.41452273    -0.02900
C4155       C  0.66066781  0.64877550  0.40521894    -0.16300
C4156       C  0.65419098  0.66492614  0.41175156    -0.14300
H4157       H  0.65205389  0.69684943  0.43118622     0.21100
H4158       H  0.70500287  0.65711897  0.44267797     0.17100
H4159       H  0.71583415  0.68302613  0.46540649     0.19600
H4160       H  0.64192733  0.67129271  0.40716718     0.13000
C4161       C  0.79482474  0.68957721  0.55889190     0.16800
C4162       C  0.80616825  0.68461260  0.57310022    -0.32200
C4163       C  0.81815583  0.67047403  0.57008875     0.21200
C4164       C  0.81861933  0.66134157  0.55380789     0.03400
C4165       C  0.80705893  0.66614194  0.53966558    -0.21900
C4166       C  0.79530737  0.68057640  0.54254882     0.12600
S4167       S  0.78043954  0.70736198  0.55940309    -0.05600
C4168       C  0.77507114  0.70280457  0.53727512    -0.09100
C4169       C  0.78393929  0.68807380  0.53009447    -0.25700
S4170       S  0.83450710  0.64480985  0.55280200    -0.02900
C4171       C  0.84065002  0.65057357  0.57440853    -0.16300
C4172       C  0.83075590  0.66430873  0.58197489    -0.14300
H4173       H  0.80602409  0.69179829  0.58578219     0.21100
H4174       H  0.80753204  0.65925055  0.52683562     0.17100
H4175       H  0.78271579  0.68355938  0.51628426     0.19600
H4176       H  0.83273296  0.66945677  0.59548227     0.13000
C4177       C  0.20651373  0.06921201  0.80430352     0.16800
C4178       C  0.20375385  0.08157088  0.81819716    -0.32200
C4179       C  0.18628401  0.08796167  0.82067183     0.21200
C4180       C  0.17213433  0.08244037  0.80971043     0.03400
C4181       C  0.17496304  0.07026417  0.79554542    -0.21900
C4182       C  0.19249147  0.06374727  0.79313185     0.12600
S4183       S  0.22638861  0.05872075  0.80042994    -0.05600
C4184       C  0.21582978  0.04679318  0.78352381    -0.09100
C4185       C  0.19785345  0.05098134  0.78090620    -0.25700
S4186       S  0.15172054  0.09091139  0.81583162    -0.02900
C4187       C  0.16242874  0.10179402  0.83340801    -0.16300
C4188       C  0.18084379  0.09919797  0.83414602    -0.14300
H4189       H  0.21465884  0.08558798  0.82707824     0.21100
H4190       H  0.16391353  0.06567305  0.78713934     0.17100
H4191       H  0.18899938  0.04430803  0.77136629     0.19600
H4192       H  0.18964095  0.10468181  0.84446809     0.13000
C4193       C  0.16281890  0.92598325  0.69125939     0.16800
C4194       C  0.17017943  0.93290750  0.70721341    -0.32200
C4195       C  0.18064354  0.94855531  0.70609515     0.21200
C4196       C  0.18334572  0.95730846  0.68990877     0.03400
C4197       C  0.17592309  0.95037248  0.67388239    -0.21900
C4198       C  0.16579504  0.93439069  0.67493432     0.12600
S4199       S  0.15042996  0.90667177  0.68981630    -0.05600
C4200       C  0.14958945  0.90953675  0.66683288    -0.09100
C4201       C  0.15823916  0.92497740  0.66083323    -0.25700
S4202       S  0.19744479  0.97556835  0.69146490    -0.02900
C4203       C  0.20015775  0.97082204  0.71397760    -0.16300
C4204       C  0.19022019  0.95623435  0.71987830    -0.14300
H4205       H  0.16828575  0.92607626  0.71989789     0.21100
H4206       H  0.17839163  0.95682379  0.66110488     0.17100
H4207       H  0.15915269  0.92891739  0.64686933     0.19600
H4208       H  0.19080593  0.95089564  0.73340175     0.13000
C4209       C  0.28971382  0.06051733  0.68881254     0.16800
C4210       C  0.29737527  0.07633517  0.68196681    -0.32200
C4211       C  0.31366492  0.07479874  0.67260120     0.21200
C4212       C  0.32149872  0.05820834  0.66944963     0.03400
C4213       C  0.31370328  0.04244286  0.67598549    -0.21900
C4214       C  0.29795977  0.04406460  0.68605269     0.12600
S4215       S  0.27145834  0.05959074  0.70275042    -0.05600
C4216       C  0.27569850  0.03703073  0.70549878    -0.09100
C4217       C  0.28997514  0.03060556  0.69554508    -0.25700
S4218       S  0.34155536  0.05908291  0.65851235    -0.02900
C4219       C  0.33980039  0.08212940  0.65871727    -0.16300
C4220       C  0.32414854  0.08863338  0.66642870    -0.14300
H4221       H  0.29143666  0.08932623  0.68464007     0.21100
H4222       H  0.32016330  0.02955584  0.67413148     0.17100
H4223       H  0.29498137  0.01696377  0.69616493     0.19600
H4224       H  0.32085691  0.10273710  0.66774809     0.13000
C4225       C  0.30856592  0.92805846  0.70376186     0.16800
C4226       C  0.31533166  0.91337330  0.69409274    -0.32200
C4227       C  0.32851543  0.91685163  0.68110471     0.21200
C4228       C  0.33462984  0.93416303  0.67780251     0.03400
C4229       C  0.32817857  0.94874188  0.68773099    -0.21900
C4230       C  0.31512556  0.94524511  0.70077651     0.12600
S4231       S  0.29174270  0.92701446  0.71937081    -0.05600
C4232       C  0.29406014  0.94989609  0.72226215    -0.09100
C4233       C  0.30701734  0.95773837  0.71144973    -0.25700
S4234       S  0.34985441  0.93577572  0.66079255    -0.02900
C4235       C  0.34809216  0.91286566  0.65823750    -0.16300
C4236       C  0.33641391  0.90450056  0.67001521    -0.14300
H4237       H  0.31033408  0.89989090  0.69636776     0.21100
H4238       H  0.33293089  0.96227265  0.68521858     0.17100
H4239       H  0.30995090  0.97200146  0.71098621     0.19600
H4240       H  0.33363860  0.89020621  0.67016969     0.13000
C4241       C  0.31428074  0.03980345  0.81987574     0.16800
C4242       C  0.31807596  0.05127661  0.83436184    -0.32200
C4243       C  0.32952345  0.06590266  0.83125463     0.21200
C4244       C  0.33715890  0.06887836  0.81455613     0.03400
C4245       C  0.33367871  0.05714559  0.80014661    -0.21900
C4246       C  0.32196442  0.04263879  0.80318371     0.12600
S4247       S  0.29874831  0.02290502  0.82031555    -0.05600
C4248       C  0.30225346  0.01982113  0.79763617    -0.09100
C4249       C  0.31538443  0.03094832  0.79044066    -0.25700
S4250       S  0.35039194  0.08769289  0.81353768    -0.02900
C4251       C  0.34556943  0.09139627  0.83584014    -0.16300
C4252       C  0.33433591  0.07878003  0.84352693    -0.14300
H4253       H  0.31184854  0.04927445  0.84732480     0.21100
H4254       H  0.33937067  0.05954916  0.78700677     0.17100
H4255       H  0.31867750  0.03164082  0.77629852     0.19600
H4256       H  0.33015043  0.07894185  0.85744323     0.13000
C4257       C  0.08428077  0.42985939  0.05978993     0.16800
C4258       C  0.07767665  0.43708274  0.04373913    -0.32200
C4259       C  0.06641856  0.45206328  0.04490313     0.21200
C4260       C  0.06224572  0.45993035  0.06126640     0.03400
C4261       C  0.06902788  0.45278226  0.07739645    -0.21900
C4262       C  0.07995778  0.43743791  0.07625974     0.12600
S4263       S  0.09702110  0.41091465  0.06110564    -0.05600
C4264       C  0.09623286  0.41285867  0.08415449    -0.09100
C4265       C  0.08689318  0.42774185  0.09035896    -0.25700
S4266       S  0.04733537  0.47737833  0.05964947    -0.02900
C4267       C  0.04646017  0.47358973  0.03679759    -0.16300
C4268       C  0.05740595  0.45980471  0.03089080    -0.14300
H4269       H  0.08065731  0.43088578  0.03091185     0.21100
H4270       H  0.06542962  0.45852030  0.09026782     0.17100
H4271       H  0.08491422  0.43097003  0.10440895     0.19600
H4272       H  0.05799291  0.45507364  0.01711749     0.13000
C4273       C  0.06118081  0.56286088  0.95151029     0.16800
C4274       C  0.07667968  0.56991667  0.94339699    -0.32200
C4275       C  0.07454321  0.57884710  0.92688611     0.21200
C4276       C  0.05769218  0.58129281  0.91920332     0.03400
C4277       C  0.04225179  0.57451638  0.92741083    -0.21900
C4278       C  0.04445429  0.56499894  0.94347022     0.12600
S4279       S  0.06092473  0.54956937  0.97031804    -0.05600
C4280       C  0.03820096  0.54642599  0.96677211    -0.09100
C4281       C  0.03130302  0.55565191  0.95214972    -0.25700
S4282       S  0.05781904  0.59198313  0.89897658    -0.02900
C4283       C  0.08092636  0.59280220  0.90050592    -0.16300
C4284       C  0.08798036  0.58538062  0.91614649    -0.14300
H4285       H  0.08987210  0.56783743  0.94925793     0.21100
H4286       H  0.02915211  0.57591119  0.92112927     0.17100
H4287       H  0.01749931  0.55468005  0.94747945     0.19600
H4288       H  0.10218559  0.58467691  0.91935445     0.13000
C4289       C  0.95643787  0.56142642  0.06069974     0.16800
C4290       C  0.95038526  0.56961044  0.07660932    -0.32200
C4291       C  0.93404777  0.57909166  0.07585033     0.21200
C4292       C  0.92433632  0.58048016  0.05993875     0.03400
C4293       C  0.93028425  0.57223545  0.04416950    -0.21900
C4294       C  0.94642416  0.56266877  0.04497356     0.12600
S4295       S  0.97552033  0.54868494  0.05866020    -0.05600
C4296       C  0.96955654  0.54478940  0.03654318    -0.09100
C4297       C  0.95382803  0.55316818  0.03118096    -0.25700
S4298       S  0.90489512  0.59237176  0.06158964    -0.02900
C4299       C  0.90945239  0.59518705  0.08417982    -0.16300
C4300       C  0.92555071  0.58756470  0.08986537    -0.14300
H4301       H  0.95792312  0.56843871  0.08904927     0.21100
H4302       H  0.92252397  0.57304052  0.03182703     0.17100
H4303       H  0.94779735  0.55188627  0.01793666     0.19600
H4304       H  0.93052107  0.58788312  0.10357727     0.13000
C4305       C  0.04520269  0.44196046  0.92495512     0.16800
C4306       C  0.05725583  0.43912942  0.91084415    -0.32200
C4307       C  0.06865060  0.42422908  0.91198999     0.21200
C4308       C  0.06792202  0.41250092  0.92643182     0.03400
C4309       C  0.05574150  0.41524567  0.94047744    -0.21900
C4310       C  0.04446876  0.43028604  0.93942934     0.12600
S4311       S  0.03154056  0.46018699  0.92682525    -0.05600
C4312       C  0.02494812  0.45225050  0.94751414    -0.09100
C4313       C  0.03267435  0.43600046  0.95234224    -0.25700
S4314       S  0.08299087  0.39529629  0.92538306    -0.02900
C4315       C  0.09030520  0.40402931  0.90531426    -0.16300
C4316       C  0.08155942  0.41947502  0.89982985    -0.14300
H4317       H  0.05802332  0.44839032  0.89967394     0.21100
H4318       H  0.05533671  0.40626928  0.95189698     0.17100
H4319       H  0.03073301  0.42937763  0.96512982     0.19600
H4320       H  0.08442146  0.42669060  0.88755155     0.13000
C4321       C  0.93293489  0.44263156  0.04944777     0.16800
C4322       C  0.91859680  0.43855804  0.06089430    -0.32200
C4323       C  0.92197051  0.42685473  0.07525335     0.21200
C4324       C  0.93883953  0.41945473  0.07810643     0.03400
C4325       C  0.95312650  0.42338693  0.06655124    -0.21900
C4326       C  0.94975347  0.43510149  0.05218143     0.12600
S4327       S  0.93196837  0.45752541  0.03203176    -0.05600
C4328       C  0.95448702  0.45356442  0.02835151    -0.09100
C4329       C  0.96209740  0.44113908  0.03998094    -0.25700
S4330       S  0.94008858  0.40536019  0.09616424    -0.02900
C4331       C  0.91760460  0.40936705  0.09972482    -0.16300
C4332       C  0.90973184  0.42114192  0.08767379    -0.14300
H4333       H  0.90543906  0.44441287  0.05882500     0.21100
H4334       H  0.96632789  0.41767097  0.06873599     0.17100
H4335       H  0.97618026  0.43748264  0.04015627     0.19600
H4336       H  0.89566862  0.42486426  0.08773369     0.13000
C4337       C  0.16816653  0.79579386  0.04936760     0.16800
C4338       C  0.15589684  0.80965927  0.05278031    -0.32200
C4339       C  0.15778843  0.81917425  0.06903081     0.21200
C4340       C  0.17101615  0.81481090  0.08149973     0.03400
C4341       C  0.18299586  0.80075385  0.07824762    -0.21900
C4342       C  0.18133496  0.79150324  0.06189426     0.12600
S4343       S  0.16980155  0.78419325  0.02954014    -0.05600
C4344       C  0.18863521  0.77375058  0.03817693    -0.09100
C4345       C  0.19287475  0.77871017  0.05568269    -0.25700
S4346       S  0.17152031  0.82821138  0.10015384    -0.02900
C4347       C  0.15382090  0.83990063  0.09101984    -0.16300
C4348       C  0.14782572  0.83364807  0.07446128    -0.14300
H4349       H  0.14578184  0.81331986  0.04293003     0.21100
H4350       H  0.19356515  0.79756430  0.08778901     0.17100
H4351       H  0.20469285  0.77428781  0.06299401     0.19600
H4352       H  0.13676775  0.83937961  0.06690360     0.13000
C4353       C  0.17199494  0.66344854  0.92150961     0.16800
C4354       C  0.18577730  0.66638908  0.93406479    -0.32200
C4355       C  0.18528824  0.68234013  0.94406943     0.21200
C4356       C  0.17157022  0.69473287  0.94184336     0.03400
C4357       C  0.15768983  0.69174126  0.92937885    -0.21900
C4358       C  0.15833230  0.67590615  0.91919868     0.12600
S4359       S  0.17046425  0.64511047  0.90779473    -0.05600
C4360       C  0.15138418  0.65448221  0.89878882    -0.09100
C4361       C  0.14641897  0.67081896  0.90607269    -0.25700
S4362       S  0.17393767  0.71366171  0.95458405    -0.02900
C4363       C  0.19374736  0.70487994  0.96284812    -0.16300
C4364       C  0.19801266  0.68804013  0.95619121    -0.14300
H4365       H  0.19658682  0.65681659  0.93573075     0.21100
H4366       H  0.14708214  0.70148908  0.92743528     0.17100
H4367       H  0.13467801  0.67840959  0.90203659     0.19600
H4368       H  0.21015498  0.68071133  0.95943913     0.13000
C4369       C  0.31076867  0.70512920  0.93851237     0.16800
C4370       C  0.32112668  0.69886740  0.92405577    -0.32200
C4371       C  0.32991630  0.68226700  0.92607844     0.21200
C4372       C  0.32879166  0.67258175  0.94191947     0.03400
C4373       C  0.31834847  0.67872196  0.95624012    -0.21900
C4374       C  0.30927900  0.69504824  0.95406884     0.12600
S4375       S  0.29832175  0.72452893  0.93867267    -0.05600
C4376       C  0.29067705  0.71856677  0.95965792    -0.09100
C4377       C  0.29775320  0.70261302  0.96612382    -0.25700
S4378       S  0.34045622  0.65289268  0.94188791    -0.02900
C4379       C  0.34637689  0.65721352  0.91992806    -0.16300
C4380       C  0.33995028  0.67347009  0.91336728    -0.14300
H4381       H  0.32202423  0.70641736  0.91167582     0.21100
H4382       H  0.31708520  0.67094240  0.96844959     0.17100
H4383       H  0.29420652  0.69657858  0.97886024     0.19600
H4384       H  0.34224058  0.67839991  0.89989289     0.13000
C4385       C  0.30648757  0.66233967  0.06682933     0.16800
C4386       C  0.29316381  0.66435262  0.05354310    -0.32200
C4387       C  0.28324936  0.68037307  0.05356785     0.21200
C4388       C  0.28623806  0.69355637  0.06648500     0.03400
C4389       C  0.29937872  0.69146608  0.07982761    -0.21900
C4390       C  0.30952299  0.67570197  0.07956309     0.12600
S4391       S  0.32069827  0.64444089  0.06860195    -0.05600
C4392       C  0.33081326  0.65530306  0.08648102    -0.09100
C4393       C  0.32351414  0.67175139  0.09085745    -0.25700
S4394       S  0.27389263  0.71251866  0.06361176    -0.02900
C4395       C  0.26476674  0.70287816  0.04452204    -0.16300
C4396       C  0.27081750  0.68561998  0.04091822    -0.14300
H4397       H  0.29100735  0.65415216  0.04333144     0.21100
H4398       H  0.30199170  0.70195375  0.08964135     0.17100
H4399       H  0.32832342  0.68037235  0.10163127     0.19600
H4400       H  0.26716473  0.67780294  0.02913521     0.13000
C4401       C  0.29044047  0.81371811  0.05193087     0.16800
C4402       C  0.29480431  0.82385341  0.06723393    -0.32200
C4403       C  0.31232209  0.83065863  0.06865861     0.21200
C4404       C  0.32502347  0.82747001  0.05548551     0.03400
C4405       C  0.32054685  0.81754657  0.03995984    -0.21900
C4406       C  0.30292935  0.81075576  0.03847926     0.12600
S4407       S  0.27030539  0.80334324  0.04851648    -0.05600
C4408       C  0.27858444  0.79491549  0.02860829    -0.09100
C4409       C  0.29609812  0.80010397  0.02485107    -0.25700
S4410       S  0.34588742  0.83596693  0.06047167    -0.02900
C4411       C  0.33732487  0.84394434  0.08048503    -0.16300
C4412       C  0.31918592  0.84030412  0.08283469    -0.14300
H4413       H  0.28506488  0.82600458  0.07777944     0.21100
H4414       H  0.33045050  0.81491814  0.02968790     0.17100
H4415       H  0.30368061  0.79559171  0.01332304     0.19600
H4416       H  0.31155704  0.84408355  0.09460110     0.13000
C4417       C  0.45152878  0.67984980  0.68841744     0.16800
C4418       C  0.44499656  0.66424661  0.67986452    -0.32200
C4419       C  0.42887048  0.66556327  0.66995652     0.21200
C4420       C  0.41982856  0.68174776  0.66839106     0.03400
C4421       C  0.42617848  0.69723014  0.67714121    -0.21900
C4422       C  0.44207964  0.69582669  0.68725619     0.12600
S4423       S  0.47071912  0.68122001  0.70132941    -0.05600
C4424       C  0.46553504  0.70338535  0.70554470    -0.09100
C4425       C  0.44993358  0.70924741  0.69716695    -0.25700
S4426       S  0.40059081  0.68065073  0.65578267    -0.02900
C4427       C  0.40427100  0.65789838  0.65311936    -0.16300
C4428       C  0.41997476  0.65181232  0.66124171    -0.14300
H4429       H  0.45205241  0.65160249  0.68103877     0.21100
H4430       H  0.41892337  0.70979284  0.67627785     0.17100
H4431       H  0.44448413  0.72266567  0.69847587     0.19600
H4432       H  0.42435788  0.63795585  0.66117410     0.13000
C4433       C  0.43365174  0.83738149  0.68389800     0.16800
C4434       C  0.44772049  0.83312739  0.69567686    -0.32200
C4435       C  0.44514161  0.81867088  0.70739107     0.21200
C4436       C  0.42912914  0.80906249  0.70767084     0.03400
C4437       C  0.41483301  0.81362914  0.69620730    -0.21900
C4438       C  0.41756970  0.82785856  0.68419576     0.12600
S4439       S  0.43479719  0.85351131  0.66771348    -0.05600
C4440       C  0.41344046  0.84730498  0.66125899    -0.09100
C4441       C  0.40580547  0.83361262  0.67122108    -0.25700
S4442       S  0.42951216  0.79069218  0.72136196    -0.02900
C4443       C  0.45159456  0.79584266  0.72646600    -0.16300
C4444       C  0.45795821  0.81133717  0.71836140    -0.14300
H4445       H  0.46041319  0.84029079  0.69520324     0.21100
H4446       H  0.40244093  0.80593541  0.69609634     0.17100
H4447       H  0.39249597  0.82807802  0.66890928     0.19600
H4448       H  0.47169672  0.81616558  0.71927523     0.13000
C4449       C  0.43664246  0.68457637  0.84487643     0.16800
C4450       C  0.45129380  0.69454365  0.83860038    -0.32200
C4451       C  0.44822176  0.70627413  0.82421803     0.21200
C4452       C  0.43132348  0.70811121  0.81645379     0.03400
C4453       C  0.41656649  0.69850200  0.82304425    -0.21900
C4454       C  0.41965777  0.68667567  0.83734374     0.12600
S4455       S  0.43793870  0.66831187  0.86095776    -0.05600
C4456       C  0.41534676  0.66449520  0.85754181    -0.09100
C4457       C  0.40731736  0.67526579  0.84472136    -0.25700
S4458       S  0.43086225  0.72138953  0.79778560    -0.02900
C4459       C  0.45369266  0.72445965  0.80048349    -0.16300
C4460       C  0.46103990  0.71589303  0.81530929    -0.14300
H4461       H  0.46464014  0.69271105  0.84419871     0.21100
H4462       H  0.40341033  0.69963776  0.81683116     0.17100
H4463       H  0.39339899  0.67416642  0.84046825     0.19600
H4464       H  0.47523906  0.71565693  0.81864632     0.13000
C4465       C  0.56402477  0.68274358  0.78807966     0.16800
C4466       C  0.58035574  0.67643063  0.79505607    -0.32200
C4467       C  0.57987488  0.66725640  0.81148443     0.21200
C4468       C  0.56379551  0.66382090  0.82020408     0.03400
C4469       C  0.54748557  0.67002740  0.81320268    -0.21900
C4470       C  0.54806545  0.67983595  0.79718995     0.12600
S4471       S  0.56193317  0.69602873  0.76946630    -0.05600
C4472       C  0.53952566  0.69825606  0.77455541    -0.09100
C4473       C  0.53399567  0.68874659  0.78951082    -0.25700
S4474       S  0.56605912  0.65309032  0.84027883    -0.02900
C4475       C  0.58900552  0.65398575  0.83730999    -0.16300
C4476       C  0.59442890  0.66167290  0.82129036    -0.14300
H4477       H  0.59296061  0.67928154  0.78842043     0.21100
H4478       H  0.53499992  0.66802477  0.82035332     0.17100
H4479       H  0.52057409  0.68921604  0.79507075     0.19600
H4480       H  0.60829989  0.66361095  0.81737168     0.13000
C4481       C  0.56230888  0.78575679  0.68409013     0.16800
C4482       C  0.57823446  0.79379302  0.67787899    -0.32200
C4483       C  0.57676054  0.81033599  0.66887716     0.21200
C4484       C  0.56015423  0.81817736  0.66569585     0.03400
C4485       C  0.54432227  0.81009052  0.67169948    -0.21900
C4486       C  0.54583769  0.79393292  0.68114529     0.12600
S4487       S  0.56115556  0.76695270  0.69734184    -0.05600
C4488       C  0.53839443  0.77067780  0.69935116    -0.09100
C4489       C  0.53216030  0.78533352  0.68976301    -0.25700
S4490       S  0.56102002  0.83841447  0.65508250    -0.02900
C4491       C  0.58408601  0.83670876  0.65535032    -0.16300
C4492       C  0.59062484  0.82096319  0.66292263    -0.14300
H4493       H  0.59122177  0.78782766  0.68060661     0.21100
H4494       H  0.53141269  0.81650844  0.66973829     0.17100
H4495       H  0.51847590  0.79025875  0.69022764     0.19600
H4496       H  0.60474277  0.81766745  0.66422675     0.13000
C4497       C  0.19154172  0.18001862  0.44862595     0.16800
C4498       C  0.18734624  0.16788532  0.43483032    -0.32200
C4499       C  0.17015068  0.16881050  0.42716589     0.21200
C4500       C  0.15753079  0.18116075  0.43303979     0.03400
C4501       C  0.16176709  0.19341537  0.44681609    -0.21900
C4502       C  0.17909345  0.19257418  0.45439371     0.12600
S4503       S  0.21198293  0.18142076  0.45902883    -0.05600
C4504       C  0.20389880  0.19934926  0.47112823    -0.09100
C4505       C  0.18612930  0.20375668  0.46734122    -0.25700
S4506       S  0.13736150  0.17994834  0.42192352    -0.02900
C4507       C  0.14627590  0.16287542  0.40916329    -0.16300
C4508       C  0.16377059  0.15830871  0.41342499    -0.14300
H4509       H  0.19715349  0.15827066  0.43011406     0.21100
H4510       H  0.15208062  0.20326729  0.45128758     0.17100
H4511       H  0.17900024  0.21498717  0.47319455     0.19600
H4512       H  0.17135092  0.14782967  0.40680699     0.13000
C4513       C  0.29606136  0.17354283  0.55908453     0.16800
C4514       C  0.30822089  0.15973314  0.56286592    -0.32200
C4515       C  0.31820259  0.16095789  0.57885660     0.21200
C4516       C  0.31578978  0.17497997  0.59092534     0.03400
C4517       C  0.30354049  0.18878530  0.58718683    -0.21900
C4518       C  0.29395512  0.18784360  0.57087079     0.12600
S4519       S  0.28409129  0.17535095  0.53952505    -0.05600
C4520       C  0.27664155  0.19594622  0.54691625    -0.09100
C4521       C  0.28273579  0.20071999  0.56399250    -0.25700
S4522       S  0.32936566  0.17397851  0.60953542    -0.02900
C4523       C  0.33862216  0.15475189  0.60064498    -0.16300
C4524       C  0.33139872  0.14939343  0.58429639    -0.14300
H4525       H  0.31026709  0.14881700  0.55344700     0.21100
H4526       H  0.30197152  0.20003410  0.59630732     0.17100
H4527       H  0.27997500  0.21340921  0.57057170     0.19600
H4528       H  0.33564045  0.13765783  0.57681932     0.13000
C4529       C  0.31987296  0.30467600  0.54435079     0.16800
C4530       C  0.33590438  0.31263906  0.55073894    -0.32200
C4531       C  0.33511855  0.32260713  0.56685699     0.21200
C4532       C  0.31905369  0.32473383  0.57597527     0.03400
C4533       C  0.30317512  0.31673969  0.56968127    -0.21900
C4534       C  0.30401154  0.30661214  0.55382795     0.12600
S4535       S  0.31775522  0.29151373  0.52542115    -0.05600
C4536       C  0.29540189  0.28841018  0.53069668    -0.09100
C4537       C  0.29006794  0.29727704  0.54617126    -0.25700
S4538       S  0.32063299  0.33709900  0.59523780    -0.02900
C4539       C  0.34336384  0.33907869  0.59146521    -0.16300
C4540       C  0.34920483  0.33088875  0.57571850    -0.14300
H4541       H  0.34844268  0.31092739  0.54363126     0.21100
H4542       H  0.29071167  0.31813728  0.57699677     0.17100
H4543       H  0.27667095  0.29659350  0.55177420     0.19600
H4544       H  0.36302538  0.33075067  0.57123030     0.13000
C4545       C  0.18228409  0.31288054  0.41801646     0.16800
C4546       C  0.19058612  0.29688350  0.42321532    -0.32200
C4547       C  0.20519363  0.29807416  0.43512637     0.21200
C4548       C  0.21156474  0.31447114  0.44143278     0.03400
C4549       C  0.20341139  0.33059246  0.43596211    -0.21900
C4550       C  0.18854515  0.32938089  0.42420507     0.12600
S4551       S  0.16358794  0.31395110  0.40470424    -0.05600
C4552       C  0.16404424  0.33690209  0.40747538    -0.09100
C4553       C  0.17813969  0.34332465  0.41804597    -0.25700
S4554       S  0.22848406  0.31268199  0.45711702    -0.02900
C4555       C  0.22668628  0.28965858  0.45518391    -0.16300
C4556       C  0.21382367  0.28388090  0.44290250    -0.14300
H4557       H  0.18547491  0.28399223  0.41865544     0.21100
H4558       H  0.20804259  0.34343651  0.44111364     0.17100
H4559       H  0.18035011  0.35734559  0.42134469     0.19600
H4560       H  0.21021998  0.26993407  0.44061255     0.13000
C4561       C  0.31094727  0.20520166  0.42972688     0.16800
C4562       C  0.31839892  0.20016608  0.41308270    -0.32200
C4563       C  0.32692807  0.18330223  0.41200384     0.21200
C4564       C  0.32833831  0.17231060  0.42695613     0.03400
C4565       C  0.32086102  0.17726297  0.44340574    -0.21900
C4566       C  0.31199474  0.19375939  0.44435661     0.12600
S4567       S  0.29920088  0.22457985  0.43397683    -0.05600
C4568       C  0.29524612  0.21668203  0.45540294    -0.09100
C4569       C  0.30299110  0.20018167  0.45896608    -0.25700
S4570       S  0.33933512  0.15265194  0.42338411    -0.02900
C4571       C  0.34169020  0.15871683  0.40118541    -0.16300
C4572       C  0.33450175  0.17548338  0.39703527    -0.14300
H4573       H  0.31731081  0.20882054  0.40145897     0.21100
H4574       H  0.32164400  0.16844516  0.45493681     0.17100
H4575       H  0.30168337  0.19299282  0.47153418     0.19600
H4576       H  0.33478435  0.18154076  0.38382609     0.13000
C4577       C  0.19297205  0.29020149  0.56866159     0.16800
C4578       C  0.18978437  0.30344879  0.58164202    -0.32200
C4579       C  0.17401934  0.31353706  0.57988425     0.21200
C4580       C  0.16173760  0.31025603  0.56611533     0.03400
C4581       C  0.16483597  0.29688120  0.55327563    -0.21900
C4582       C  0.18081720  0.28712293  0.55474913     0.12600
S4583       S  0.21224241  0.27802793  0.56721975    -0.05600
C4584       C  0.20412825  0.26922022  0.54729878    -0.09100
C4585       C  0.18707508  0.27495229  0.54251455    -0.25700
S4586       S  0.14354330  0.32408267  0.56609682    -0.02900
C4587       C  0.15270785  0.33450423  0.58466366    -0.16300
C4588       C  0.16892075  0.32756756  0.59059308    -0.14300
H4589       H  0.19946530  0.30620592  0.59224716     0.21100
H4590       H  0.15549120  0.29460142  0.54226740     0.17100
H4591       H  0.18019483  0.27143119  0.53010770     0.19600
H4592       H  0.17643870  0.33249100  0.60212700     0.13000
C4593       C  0.18503951  0.43020414  0.16540190     0.16800
C4594       C  0.20114251  0.43704083  0.17230960    -0.32200
C4595       C  0.20021863  0.45216106  0.18340438     0.21200
C4596       C  0.18407321  0.46067465  0.18701136     0.03400
C4597       C  0.16784697  0.45392793  0.17986693    -0.21900
C4598       C  0.16871544  0.43829697  0.16922905     0.12600
S4599       S  0.18352656  0.41103941  0.15300134    -0.05600
C4600       C  0.16056772  0.41347108  0.15337421    -0.09100
C4601       C  0.15449071  0.42871048  0.16222574    -0.25700
S4602       S  0.18603976  0.47831127  0.20178033    -0.02900
C4603       C  0.20864619  0.47351661  0.20342750    -0.16300
C4604       C  0.21427184  0.45941714  0.19278864    -0.14300
H4605       H  0.21380492  0.43038190  0.16977065     0.21100
H4606       H  0.15510039  0.46011592  0.18305495     0.17100
H4607       H  0.14047930  0.43224438  0.16382306     0.19600
H4608       H  0.22786295  0.45422684  0.19256989     0.13000
C4609       C  0.29296859  0.55954744  0.18105313     0.16800
C4610       C  0.29757857  0.56920091  0.16552484    -0.32200
C4611       C  0.31474266  0.57723029  0.16500148     0.21200
C4612       C  0.32652773  0.57608262  0.17946452     0.03400
C4613       C  0.32199746  0.56640048  0.19485101    -0.21900
C4614       C  0.30511864  0.55804954  0.19517381     0.12600
S4615       S  0.27305848  0.54831586  0.18442856    -0.05600
C4616       C  0.28157212  0.54126907  0.20481179    -0.09100
C4617       C  0.29874139  0.54751456  0.20867685    -0.25700
S4618       S  0.34662671  0.58661195  0.17640299    -0.02900
C4619       C  0.33957563  0.59212211  0.15497958    -0.16300
C4620       C  0.32219670  0.58637486  0.15084084    -0.14300
H4621       H  0.28834698  0.57015246  0.15425625     0.21100
H4622       H  0.33136387  0.56516490  0.20598852     0.17100
H4623       H  0.30624740  0.54440560  0.22080250     0.19600
H4624       H  0.31555053  0.58841126  0.13801940     0.13000
C4625       C  0.31120635  0.55103102  0.31540611     0.16800
C4626       C  0.31738086  0.56147353  0.32987355    -0.32200
C4627       C  0.33022129  0.57478476  0.32624256     0.21200
C4628       C  0.33662738  0.57763204  0.30899728     0.03400
C4629       C  0.33068307  0.56700044  0.29460754    -0.21900
C4630       C  0.31792826  0.55364318  0.29826035     0.12600
S4631       S  0.29484430  0.53492374  0.31671876    -0.05600
C4632       C  0.29744725  0.53144837  0.29400761    -0.09100
C4633       C  0.31023583  0.54230165  0.28597559    -0.25700
S4634       S  0.35182532  0.59474627  0.30727073    -0.02900
C4635       C  0.34956472  0.59797433  0.33003330    -0.16300
C4636       C  0.33772715  0.58639648  0.33843594    -0.14300
H4637       H  0.31223403  0.55948194  0.34330684     0.21100
H4638       H  0.33564382  0.56915602  0.28112637     0.17100
H4639       H  0.31321777  0.54239504  0.27173889     0.19600
H4640       H  0.33482613  0.58652342  0.35268345     0.13000
C4641       C  0.20785218  0.44073772  0.32099592     0.16800
C4642       C  0.19901368  0.43562187  0.33679524    -0.32200
C4643       C  0.18491826  0.42309139  0.33522499     0.21200
C4644       C  0.17979437  0.41608327  0.31864827     0.03400
C4645       C  0.18870122  0.42110616  0.30291197    -0.21900
C4646       C  0.20286100  0.43348858  0.30449873     0.12600
S4647       S  0.22457924  0.45648205  0.31981584    -0.05600
C4648       C  0.22490761  0.45313445  0.29686604    -0.09100
C4649       C  0.21272851  0.44038493  0.29064653    -0.25700
S4650       S  0.16213248  0.40142039  0.31940877    -0.02900
C4651       C  0.16171098  0.40460878  0.34231699    -0.16300
C4652       C  0.17459128  0.41645986  0.34893802    -0.14300
H4653       H  0.20281711  0.44130213  0.34969694     0.21100
H4654       H  0.18465978  0.41571129  0.28995771     0.17100
H4655       H  0.21053266  0.43703794  0.27661887     0.19600
H4656       H  0.17615575  0.42010975  0.36296518     0.13000
C4657       C  0.18907128  0.56603764  0.28955204     0.16800
C4658       C  0.18199438  0.58226655  0.29607824    -0.32200
C4659       C  0.17286735  0.58183658  0.31257921     0.21200
C4660       C  0.17051684  0.56590013  0.32190977     0.03400
C4661       C  0.17748669  0.54974399  0.31537794    -0.21900
C4662       C  0.18696416  0.55026413  0.29918605     0.12600
S4663       S  0.20203903  0.56378153  0.27068480    -0.05600
C4664       C  0.20517243  0.54157498  0.27638621    -0.09100
C4665       C  0.19608534  0.53625990  0.29169093    -0.25700
S4666       S  0.15941937  0.56807894  0.34177046    -0.02900
C4667       C  0.15821379  0.59083165  0.33776438    -0.16300
C4668       C  0.16581298  0.59625317  0.32166021    -0.14300
H4669       H  0.18399218  0.59474877  0.28891299     0.21100
H4670       H  0.17607206  0.53738042  0.32288891     0.17100
H4671       H  0.19693430  0.52299849  0.29759880     0.19600
H4672       H  0.16637403  0.61002533  0.31704111     0.13000
C4673       C  0.31695543  0.41187361  0.18155969     0.16800
C4674       C  0.30236974  0.41564747  0.19276576    -0.32200
C4675       C  0.30506201  0.42815192  0.20668188     0.21200
C4676       C  0.32164645  0.43626838  0.20960136     0.03400
C4677       C  0.33645080  0.43193206  0.19884689    -0.21900
C4678       C  0.33363310  0.41975899  0.18463350     0.12600
S4679       S  0.31596264  0.39835377  0.16295848    -0.05600
C4680       C  0.33823953  0.40338937  0.15927858    -0.09100
C4681       C  0.34597636  0.41477774  0.17195453    -0.25700
S4682       S  0.32139829  0.45307371  0.22532105    -0.02900
C4683       C  0.29863602  0.44930260  0.22776603    -0.16300
C4684       C  0.29194000  0.43525815  0.21737318    -0.14300
H4685       H  0.28925181  0.40977386  0.19019548     0.21100
H4686       H  0.34934101  0.43848137  0.20085718     0.17100
H4687       H  0.35987219  0.41917651  0.17182084     0.19600
H4688       H  0.27785103  0.43161684  0.21636469     0.13000
C4689       C  0.91069785  0.18835850  0.81971770     0.16800
C4690       C  0.91410674  0.20148043  0.80674382    -0.32200
C4691       C  0.93166590  0.20826229  0.80571550     0.21200
C4692       C  0.94514277  0.20257942  0.81733648     0.03400
C4693       C  0.94169433  0.18961571  0.83043193    -0.21900
C4694       C  0.92426875  0.18252418  0.83116876     0.12600
S4695       S  0.89056116  0.17767727  0.82249285    -0.05600
C4696       C  0.90076931  0.16506312  0.83894265    -0.09100
C4697       C  0.91861584  0.16912198  0.84226235    -0.25700
S4698       S  0.96579565  0.21156446  0.81317017    -0.02900
C4699       C  0.95624921  0.22277435  0.79529848    -0.16300
C4700       C  0.93795441  0.21994206  0.79308008    -0.14300
H4701       H  0.90368872  0.20580273  0.79749977     0.21100
H4702       H  0.95226659  0.18483468  0.83926200     0.17100
H4703       H  0.92698682  0.16245317  0.85214508     0.19600
H4704       H  0.92987566  0.22540320  0.78224737     0.13000
C4705       C  0.82138551  0.20772141  0.95011340     0.16800
C4706       C  0.83281495  0.19301582  0.94745088    -0.32200
C4707       C  0.83241458  0.18465225  0.93051446     0.21200
C4708       C  0.82119420  0.19069765  0.91685067     0.03400
C4709       C  0.81003536  0.20554172  0.91942836    -0.21900
C4710       C  0.81041901  0.21386922  0.93631748     0.12600
S4711       S  0.81866183  0.21884432  0.97003168    -0.05600
C4712       C  0.80265236  0.23195094  0.95955577    -0.09100
C4713       C  0.79983593  0.22786968  0.94157907    -0.25700
S4714       S  0.82233446  0.17863196  0.89738858    -0.02900
C4715       C  0.83818624  0.16536991  0.90770244    -0.16300
C4716       C  0.84230613  0.17006887  0.92528654    -0.14300
H4717       H  0.84136377  0.18810095  0.95818607     0.21100
H4718       H  0.80121383  0.21022972  0.90880780     0.17100
H4719       H  0.78980392  0.23412088  0.93305578     0.19600
H4720       H  0.85217599  0.16333955  0.93361939     0.13000
C4721       C  0.56963874  0.94160933  0.91213347     0.16800
C4722       C  0.56169284  0.95719078  0.91899693    -0.32200
C4723       C  0.54743924  0.95514863  0.93105819     0.21200
C4724       C  0.54092894  0.93833900  0.93575382     0.03400
C4725       C  0.54890493  0.92265673  0.92883932    -0.21900
C4726       C  0.56356131  0.92470716  0.91709867     0.12600
S4727       S  0.58777091  0.94148028  0.89820255    -0.05600
C4728       C  0.58767401  0.91836933  0.89939862    -0.09100
C4729       C  0.57389923  0.91124801  0.90978740    -0.25700
S4730       S  0.52403807  0.93897332  0.95138189    -0.02900
C4731       C  0.52628634  0.96204768  0.95192307    -0.16300
C4732       C  0.53918632  0.96870945  0.94032456    -0.14300
H4733       H  0.56679718  0.97037154  0.91552587     0.21100
H4734       H  0.54427269  0.90946988  0.93287094     0.17100
H4735       H  0.57190306  0.89704480  0.91222172     0.19600
H4736       H  0.54294655  0.98275339  0.93938972     0.13000
C4737       C  0.56948348  0.83646895  0.81382796     0.16800
C4738       C  0.55887247  0.83116959  0.79910829    -0.32200
C4739       C  0.54898168  0.81519002  0.80065681     0.21200
C4740       C  0.54946638  0.80497459  0.81620822     0.03400
C4741       C  0.55991534  0.81038706  0.83103282    -0.21900
C4742       C  0.56995653  0.82629872  0.82942784     0.12600
S4743       S  0.58316042  0.85494538  0.81423648    -0.05600
C4744       C  0.58958598  0.84887624  0.83561599    -0.09100
C4745       C  0.58147053  0.83342628  0.84205196    -0.25700
S4746       S  0.53708972  0.78560850  0.81504904    -0.02900
C4747       C  0.53122390  0.79136328  0.79337411    -0.16300
C4748       C  0.53848352  0.80749432  0.78754703    -0.14300
H4749       H  0.55861154  0.83897611  0.78684925     0.21100
H4750       H  0.56047648  0.80236902  0.84314322     0.17100
H4751       H  0.58415056  0.82758689  0.85510605     0.19600
H4752       H  0.53655807  0.81308024  0.77424821     0.13000
C4753       C  0.82987628  0.57312097  0.80466114     0.16800
C4754       C  0.82265209  0.56681357  0.78843521    -0.32200
C4755       C  0.81217741  0.55117062  0.78894512     0.21200
C4756       C  0.80944849  0.54178680  0.80477539     0.03400
C4757       C  0.81673190  0.54810689  0.82107599    -0.21900
C4758       C  0.82673501  0.56415513  0.82066070     0.12600
S4759       S  0.84201560  0.59245340  0.80684896    -0.05600
C4760       C  0.84223559  0.58896465  0.82972758    -0.09100
C4761       C  0.83379228  0.57323632  0.83516085    -0.25700
S4762       S  0.79552403  0.52353010  0.80250420    -0.02900
C4763       C  0.79286713  0.52914273  0.78020359    -0.16300
C4764       C  0.80269519  0.54401293  0.77485834    -0.14300
H4765       H  0.82458815  0.57413878  0.77603593     0.21100
H4766       H  0.81417759  0.54119328  0.83359253     0.17100
H4767       H  0.83255607  0.56894444  0.84899520     0.19600
H4768       H  0.80223276  0.54979810  0.76151708     0.13000
C4769       C  0.90917776  0.55949389  0.92135915     0.16800
C4770       C  0.91152415  0.54652047  0.93482378    -0.32200
C4771       C  0.92770617  0.53685806  0.93496512     0.21200
C4772       C  0.94056652  0.53942693  0.92178917     0.03400
C4773       C  0.93808417  0.55214119  0.90817669    -0.21900
C4774       C  0.92232736  0.56237109  0.90852925     0.12600
S4775       S  0.89125111  0.57371344  0.91972084    -0.05600
C4776       C  0.90191162  0.58393601  0.90197792    -0.09100
C4777       C  0.91825882  0.57643788  0.89739757    -0.25700
S4778       S  0.95992799  0.52773252  0.92509853    -0.02900
C4779       C  0.95104733  0.51986651  0.94492313    -0.16300
C4780       C  0.93360682  0.52550907  0.94826386    -0.14300
H4781       H  0.90158069  0.54467547  0.94523202     0.21100
H4782       H  0.94842339  0.55460978  0.89829217     0.17100
H4783       H  0.92670668  0.58112157  0.88656318     0.19600
H4784       H  0.92620764  0.52262586  0.96041580     0.13000
C4785       C  0.93214801  0.91083509  0.56717000     0.16800
C4786       C  0.94744417  0.91509639  0.55713275    -0.32200
C4787       C  0.94579371  0.92846220  0.54400043     0.21200
C4788       C  0.92959456  0.93709481  0.54082567     0.03400
C4789       C  0.91416986  0.93252861  0.55056646    -0.21900
C4790       C  0.91587163  0.91930503  0.56387112     0.12600
S4791       S  0.93178638  0.89606310  0.58468519    -0.05600
C4792       C  0.90948554  0.90135089  0.58758206    -0.09100
C4793       C  0.90273340  0.91377049  0.57548349    -0.25700
S4794       S  0.93088433  0.95426582  0.52571058    -0.02900
C4795       C  0.95352768  0.94985909  0.52378002    -0.16300
C4796       C  0.95950498  0.93553306  0.53404841    -0.14300
H4797       H  0.96024017  0.90874093  0.55989136     0.21100
H4798       H  0.90157534  0.93946011  0.54835276     0.17100
H4799       H  0.88909039  0.91880209  0.57553731     0.19600
H4800       H  0.97340333  0.93135745  0.53518758     0.13000
C4801       C  0.82414791  0.81547209  0.57640951     0.16800
C4802       C  0.81615486  0.79980042  0.56958454    -0.32200
C4803       C  0.80662068  0.80107152  0.55333632     0.21200
C4804       C  0.80523469  0.81714786  0.54407461     0.03400
C4805       C  0.81313432  0.83291149  0.55100420    -0.21900
C4806       C  0.82254273  0.83168933  0.56741267     0.12600
S4807       S  0.83611306  0.81664697  0.59601649    -0.05600
C4808       C  0.83875644  0.83935388  0.59233024    -0.09100
C4809       C  0.83090365  0.84549411  0.57652853    -0.25700
S4810       S  0.79283666  0.81570811  0.52459765    -0.02900
C4811       C  0.78922153  0.79334070  0.52930529    -0.16300
C4812       C  0.79740180  0.78744824  0.54500116    -0.14300
H4813       H  0.81717503  0.78718126  0.57672490     0.21100
H4814       H  0.81186560  0.84558586  0.54401321     0.17100
H4815       H  0.83119518  0.85933031  0.57207761     0.19600
H4816       H  0.79630337  0.77392800  0.55025310     0.13000
C4817       C  0.81291499  0.93702180  0.20543338     0.16800
C4818       C  0.81913242  0.92152658  0.19663880    -0.32200
C4819       C  0.83070951  0.92390565  0.18194194     0.21200
C4820       C  0.83618071  0.94089101  0.17655586     0.03400
C4821       C  0.83028747  0.95626244  0.18554318    -0.21900
C4822       C  0.81841660  0.95392311  0.19986226     0.12600
S4823       S  0.79695035  0.93740850  0.22197149    -0.05600
C4824       C  0.79750240  0.96052804  0.22085860    -0.09100
C4825       C  0.80974046  0.96737063  0.20872640    -0.25700
S4826       S  0.84952408  0.94118088  0.15799953    -0.02900
C4827       C  0.84759478  0.91816950  0.15725646    -0.16300
C4828       C  0.83735640  0.91072953  0.17090946    -0.14300
H4829       H  0.81456520  0.90828564  0.20057206     0.21100
H4830       H  0.83419512  0.96954617  0.18107942     0.17100
H4831       H  0.81123322  0.98151066  0.20561355     0.19600
H4832       H  0.83477172  0.89649302  0.17247991     0.13000
C4833       C  0.95035938  0.82911827  0.20355109     0.16800
C4834       C  0.94889713  0.84224084  0.19017551    -0.32200
C4835       C  0.93271539  0.84309029  0.18049027     0.21200
C4836       C  0.91841989  0.83170927  0.18430775     0.03400
C4837       C  0.91991133  0.81853268  0.19765554    -0.21900
C4838       C  0.93629599  0.81735471  0.20700618     0.12600
S4839       S  0.96940483  0.82502850  0.21563981    -0.05600
C4840       C  0.95864581  0.80677857  0.22496526    -0.09100
C4841       C  0.94096235  0.80446842  0.21932289    -0.25700
S4842       S  0.89987956  0.83493328  0.17111514    -0.02900
C4843       C  0.91170435  0.85140203  0.16008129    -0.16300
C4844       C  0.92897859  0.85439138  0.16645333    -0.14300
H4845       H  0.96006925  0.85106917  0.18711625     0.21100
H4846       H  0.90894984  0.80931275  0.20030638     0.17100
H4847       H  0.93238198  0.79334119  0.22313566     0.19600
H4848       H  0.93822283  0.86426040  0.16109214     0.13000
C4849       C  0.19492559  0.94408869  0.81997092     0.16800
C4850       C  0.18041153  0.94183683  0.83171301    -0.32200
C4851       C  0.17136894  0.92525706  0.83137876     0.21200
C4852       C  0.17662986  0.91148755  0.81996475     0.03400
C4853       C  0.19100627  0.91382081  0.80810932    -0.21900
C4854       C  0.19996681  0.93043234  0.80834610     0.12600
S4855       S  0.20727759  0.96333887  0.81790037    -0.05600
C4856       C  0.21914301  0.95304411  0.80090261    -0.09100
C4857       C  0.21382480  0.93548817  0.79735501    -0.25700
S4858       S  0.16435931  0.89217495  0.82196024    -0.02900
C4859       C  0.15191995  0.90282395  0.83818076    -0.16300
C4860       C  0.15703907  0.92038625  0.84182013    -0.14300
H4861       H  0.17629874  0.95255865  0.84064461     0.21100
H4862       H  0.19500246  0.90316051  0.79905254     0.17100
H4863       H  0.21929848  0.92711705  0.78680391     0.19600
H4864       H  0.15082300  0.92893237  0.85179656     0.13000
C4865       C  0.17117901  0.82937280  0.93041322     0.16800
C4866       C  0.18094356  0.82476246  0.94583049    -0.32200
C4867       C  0.19585330  0.81354599  0.94370375     0.21200
C4868       C  0.20092736  0.80708732  0.92700352     0.03400
C4869       C  0.19113684  0.81174662  0.91149066    -0.21900
C4870       C  0.17614735  0.82301804  0.91361961     0.12600
S4871       S  0.15261392  0.84275087  0.93035157    -0.05600
C4872       C  0.15140408  0.83979435  0.90741683    -0.09100
C4873       C  0.16478973  0.82898566  0.90030669    -0.25700
S4874       S  0.21847969  0.79220755  0.92777306    -0.02900
C4875       C  0.21873434  0.79468773  0.95081690    -0.16300
C4876       C  0.20607733  0.80662419  0.95729406    -0.14300
H4877       H  0.17691107  0.82947741  0.95898531     0.21100
H4878       H  0.19480613  0.80653896  0.89841775     0.17100
H4879       H  0.16612083  0.82576165  0.88617552     0.19600
H4880       H  0.20346552  0.80889685  0.97143320     0.13000
C4881       C  0.92664066  0.94629288  0.72720727     0.16800
C4882       C  0.91369102  0.94341223  0.71373140    -0.32200
C4883       C  0.91575316  0.92835274  0.70259022     0.21200
C4884       C  0.93011705  0.91668610  0.70470231     0.03400
C4885       C  0.94308677  0.91958416  0.71820036    -0.21900
C4886       C  0.94098654  0.93463342  0.72940416     0.12600
S4887       S  0.92617335  0.96348622  0.74237795    -0.05600
C4888       C  0.94544263  0.95485363  0.75197800    -0.09100
C4889       C  0.95188578  0.93950754  0.74359247    -0.25700
S4890       S  0.92992341  0.89892161  0.69008201    -0.02900
C4891       C  0.91025720  0.90729981  0.68116401    -0.16300
C4892       C  0.90429406  0.92301902  0.68908000    -0.14300
H4893       H  0.90238186  0.95240570  0.71213741     0.21100
H4894       H  0.95420250  0.91039844  0.72002318     0.17100
H4895       H  0.96367214  0.93211493  0.74785857     0.19600
H4896       H  0.89201043  0.92989814  0.68539605     0.13000
C4897       C  0.01226727  0.94329039  0.82230404     0.16800
C4898       C  0.02545604  0.94024420  0.83548743    -0.32200
C4899       C  0.03643278  0.92510203  0.83345368     0.21200
C4900       C  0.03417742  0.91329942  0.81912996     0.03400
C4901       C  0.02089381  0.91627319  0.80603265    -0.21900
C4902       C  0.01012655  0.93159953  0.80788899     0.12600
S4903       S  0.99789531  0.96113504  0.82206433    -0.05600
C4904       C  0.98895691  0.95286174  0.80223450    -0.09100
C4905       C  0.99679704  0.93702678  0.79631964    -0.25700
S4906       S  0.04875328  0.89561224  0.81916793    -0.02900
C4907       C  0.05810497  0.90438645  0.83851596    -0.16300
C4908       C  0.05020696  0.92005584  0.84463507    -0.14300
H4909       H  0.02721586  0.94938099  0.84672759     0.21100
H4910       H  0.01914205  0.90713564  0.79479241     0.17100
H4911       H  0.99294122  0.92983874  0.78420354     0.19600
H4912       H  0.05417781  0.92715003  0.85676900     0.13000
C4913       C  0.92392612  0.02517153  0.80644487     0.16800
C4914       C  0.91115046  0.03886062  0.80822855    -0.32200
C4915       C  0.91254593  0.05016474  0.82329957     0.21200
C4916       C  0.92619826  0.04809256  0.83591811     0.03400
C4917       C  0.93890859  0.03433089  0.83417402    -0.21900
C4918       C  0.93739178  0.02288579  0.81921045     0.12600
S4919       S  0.92447866  0.01002870  0.78920027    -0.05600
C4920       C  0.94299256  0.00036715  0.79932161    -0.09100
C4921       C  0.94832866  0.00860120  0.81525613    -0.25700
S4922       S  0.92547303  0.06307052  0.85334831    -0.02900
C4923       C  0.90631020  0.07187968  0.84376598    -0.16300
C4924       C  0.90105565  0.06381651  0.82775456    -0.14300
H4925       H  0.90050063  0.04052754  0.79838149     0.21100
H4926       H  0.94943307  0.03253205  0.84412791     0.17100
H4927       H  0.95959320  0.00438218  0.82349877     0.19600
H4928       H  0.88922927  0.06750321  0.82005771     0.13000
C4929       C  0.91647669  0.73146631  0.93584615     0.16800
C4930       C  0.90305786  0.71863889  0.93229493    -0.32200
C4931       C  0.90768072  0.70374501  0.92170575     0.21200
C4932       C  0.92497286  0.70152476  0.91519905     0.03400
C4933       C  0.93834393  0.71444144  0.91861997    -0.21900
C4934       C  0.93362079  0.72951985  0.92889536     0.12600
S4935       S  0.91363906  0.75039271  0.94854324    -0.05600
C4936       C  0.93566849  0.75594784  0.94409502    -0.09100
C4937       C  0.94462857  0.74367256  0.93337022    -0.25700
S4938       S  0.92772555  0.68280513  0.90214923    -0.02900
C4939       C  0.90525599  0.67817736  0.90514606    -0.16300
C4940       C  0.89628075  0.69039351  0.91592172    -0.14300
H4941       H  0.88955469  0.72029891  0.93738590     0.21100
H4942       H  0.95176571  0.71294177  0.91327437     0.17100
H4943       H  0.95856699  0.74485216  0.92939223     0.19600
H4944       H  0.88200465  0.68992234  0.91867634     0.13000
C4945       C  0.92345457  0.80938716  0.01797828     0.16800
C4946       C  0.91139950  0.81248229  0.03201959    -0.32200
C4947       C  0.91532226  0.82658011  0.04395793     0.21200
C4948       C  0.93078568  0.83691918  0.04227696     0.03400
C4949       C  0.94295589  0.83369975  0.02830577    -0.21900
C4950       C  0.93880211  0.81984301  0.01609697     0.12600
S4951       S  0.92049377  0.79359561  0.00155852    -0.05600
C4952       C  0.93997050  0.80132835  0.99177931    -0.09100
C4953       C  0.94836450  0.81527385  0.00105706    -0.25700
S4954       S  0.93259383  0.85397716  0.05764386    -0.02900
C4955       C  0.91218468  0.84722565  0.06613921    -0.16300
C4956       C  0.90459815  0.83243539  0.05765675    -0.14300
H4957       H  0.89922420  0.80456746  0.03328401     0.21100
H4958       H  0.95485513  0.84196230  0.02671607     0.17100
H4959       H  0.96064169  0.82188593  0.99689025     0.19600
H4960       H  0.89161600  0.82672961  0.06094537     0.13000
C4961       C  0.00621796  0.81054306  0.92162454     0.16800
C4962       C  0.01862281  0.81367822  0.90792030    -0.32200
C4963       C  0.03287756  0.82548726  0.91163390     0.21200
C4964       C  0.03473663  0.83388414  0.92823037     0.03400
C4965       C  0.02227656  0.83078164  0.94193648    -0.21900
C4966       C  0.00799743  0.81894093  0.93821969     0.12600
S4967       S  0.98815315  0.79647614  0.91982250    -0.05600
C4968       C  0.98288964  0.80193378  0.94168109    -0.09100
C4969       C  0.99455862  0.81412850  0.94977786    -0.25700
S4970       S  0.05277975  0.84809565  0.92984935    -0.02900
C4971       C  0.05776636  0.84256933  0.90797419    -0.16300
C4972       C  0.04608934  0.83042286  0.89994830    -0.14300
H4973       H  0.01722108  0.80720282  0.89492431     0.21100
H4974       H  0.02361817  0.83733982  0.95489483     0.17100
H4975       H  0.99341008  0.81901768  0.96344902     0.19600
H4976       H  0.04701846  0.82583844  0.88615412     0.13000
C4977       C  0.81553494  0.02862415  0.94550693     0.16800
C4978       C  0.82780653  0.04287937  0.94424967    -0.32200
C4979       C  0.82888619  0.05187499  0.92778514     0.21200
C4980       C  0.81828122  0.04685111  0.91317464     0.03400
C4981       C  0.80597922  0.03260521  0.91445394    -0.21900
C4982       C  0.80482987  0.02366285  0.93096159     0.12600
S4983       S  0.81272082  0.01565134  0.96409559    -0.05600
C4984       C  0.79695647  0.00333946  0.95216723    -0.09100
C4985       C  0.79400384  0.00922266  0.93474845    -0.25700
S4986       S  0.82184682  0.05923947  0.89426708    -0.02900
C4987       C  0.83762139  0.07136403  0.90626297    -0.16300
C4988       C  0.84004476  0.06599846  0.92388973    -0.14300
H4989       H  0.83623895  0.04670047  0.95556716     0.21100
H4990       H  0.79775570  0.02859238  0.90305112     0.17100
H4991       H  0.78495674  0.00286826  0.92516993     0.19600
H4992       H  0.84957968  0.07199978  0.93321716     0.13000
C4993       C  0.73159687  0.93236800  0.93711315     0.16800
C4994       C  0.71982517  0.91834021  0.93235963    -0.32200
C4995       C  0.70606738  0.92208722  0.91993758     0.21200
C4996       C  0.70409949  0.93904954  0.91252293     0.03400
C4997       C  0.71605878  0.95301735  0.91707188    -0.21900
C4998       C  0.72982544  0.94926418  0.92952056     0.12600
S4999       S  0.74879752  0.93066456  0.95235475    -0.05600
C5000       C  0.75385072  0.95291787  0.94836536    -0.09100
C5001       C  0.74265261  0.96108137  0.93581664    -0.25700
S5002       S  0.68639750  0.94085948  0.89782048    -0.02900
C5003       C  0.68168899  0.91852528  0.90167407    -0.16300
C5004       C  0.69330890  0.91022274  0.91366358    -0.14300
H5005       H  0.72125095  0.90510435  0.93819080     0.21100
H5006       H  0.71463834  0.96625265  0.91123930     0.17100
H5007       H  0.74370563  0.97498194  0.93167507     0.19600
H5008       H  0.69253783  0.89619128  0.91740379     0.13000
C5009       C  0.82231170  0.91676691  0.03994265     0.16800
C5010       C  0.80915374  0.91826675  0.02642302    -0.32200
C5011       C  0.80852799  0.93434568  0.01663708     0.21200
C5012       C  0.82053275  0.94825534  0.02013554     0.03400
C5013       C  0.83365025  0.94678315  0.03364347    -0.21900
C5014       C  0.83421834  0.93076600  0.04346269     0.12600
S5015       S  0.82539596  0.89833906  0.05324138    -0.05600
C5016       C  0.84276420  0.90972546  0.06368272    -0.09100
C5017       C  0.84599197  0.92680351  0.05711686    -0.25700
S5018       S  0.81787049  0.96650428  0.00665496    -0.02900
C5019       C  0.80033411  0.95536639  0.99611555    -0.16300
C5020       C  0.79682598  0.93836766  0.00286747    -0.14300
H5021       H  0.79984731  0.90736834  0.02362956     0.21100
H5022       H  0.84303279  0.95764115  0.03635305     0.17100
H5023       H  0.85646984  0.93573776  0.06201946     0.19600
H5024       H  0.78648206  0.92935797  0.99782084     0.13000
C5025       C  0.80770245  0.73201815  0.82260345     0.16800
C5026       C  0.81039400  0.71872006  0.83564243    -0.32200
C5027       C  0.82358270  0.70572259  0.83233067     0.21200
C5028       C  0.83356478  0.70582158  0.81664077     0.03400
C5029       C  0.83082745  0.71910591  0.80355919    -0.21900
C5030       C  0.81774181  0.73222529  0.80696551     0.12600
S5031       S  0.79264868  0.74919988  0.82433655    -0.05600
C5032       C  0.80002967  0.75692517  0.80383190    -0.09100
C5033       C  0.81340529  0.74649615  0.79613559    -0.25700
S5034       S  0.84919638  0.68906671  0.81538365    -0.02900
C5035       C  0.84222932  0.68198381  0.83623580    -0.16300
C5036       C  0.82852735  0.69206889  0.84364556    -0.14300
H5037       H  0.80268722  0.71863444  0.84794189     0.21100
H5038       H  0.83870552  0.71934004  0.79137157     0.17100
H5039       H  0.81968712  0.74924859  0.78333875     0.19600
H5040       H  0.82274115  0.68968645  0.85674680     0.13000
C5041       C  0.73244951  0.81582628  0.82331340     0.16800
C5042       C  0.71967617  0.81947797  0.83659773    -0.32200
C5043       C  0.70688976  0.83281077  0.83302408     0.21200
C5044       C  0.70679142  0.84214804  0.81691449     0.03400
C5045       C  0.71968131  0.83857411  0.80364465    -0.21900
C5046       C  0.73251798  0.82520471  0.80723768     0.12600
S5047       S  0.74886388  0.79997171  0.82509340    -0.05600
C5048       C  0.75613231  0.80601801  0.80398671    -0.09100
C5049       C  0.74615458  0.81968752  0.79608965    -0.25700
S5050       S  0.69011702  0.85786345  0.81527008    -0.02900
C5051       C  0.68329289  0.85172508  0.83647817    -0.16300
C5052       C  0.69347379  0.83830172  0.84433130    -0.14300
H5053       H  0.71968688  0.81220317  0.84918162     0.21100
H5054       H  0.71969883  0.84588400  0.79108364     0.17100
H5055       H  0.74863933  0.82517972  0.78287098     0.19600
H5056       H  0.69127310  0.83302578  0.85769002     0.13000
C5057       C  0.82091782  0.80954602  0.73124652     0.16800
C5058       C  0.83379813  0.81154784  0.71768902    -0.32200
C5059       C  0.83255039  0.82672836  0.70660607     0.21200
C5060       C  0.81907945  0.83935843  0.70889978     0.03400
C5061       C  0.80617844  0.83731140  0.72241619    -0.21900
C5062       C  0.80743897  0.82215565  0.73352299     0.12600
S5063       S  0.82036145  0.79236107  0.74640003    -0.05600
C5064       C  0.80184152  0.80233410  0.75605161    -0.09100
C5065       C  0.79641654  0.81806127  0.74767861    -0.25700
S5066       S  0.82009025  0.85703312  0.69431304    -0.02900
C5067       C  0.83879294  0.84725489  0.68499064    -0.16300
C5068       C  0.84390504  0.83118466  0.69284740    -0.14300
H5069       H  0.84441324  0.80178596  0.71595481     0.21100
H5070       H  0.79570729  0.84719649  0.72430471     0.17100
H5071       H  0.78520634  0.82625646  0.75192015     0.19600
H5072       H  0.85545644  0.82335883  0.68882786     0.13000
C5073       C  0.42751078  0.17734655  0.16532263     0.16800
C5074       C  0.44066384  0.19075820  0.16733958    -0.32200
C5075       C  0.45095167  0.19081231  0.18321287     0.21200
C5076       C  0.44844965  0.17795350  0.19641683     0.03400
C5077       C  0.43544043  0.16439250  0.19430658    -0.21900
C5078       C  0.42495259  0.16449903  0.17854547     0.12600
S5079       S  0.41330439  0.17530719  0.14727731    -0.05600
C5080       C  0.40371970  0.15707803  0.15773085    -0.09100
C5081       C  0.41127114  0.15279496  0.17424477    -0.25700
S5082       S  0.46136006  0.18118028  0.21525097    -0.02900
C5083       C  0.46998817  0.20025535  0.20537532    -0.16300
C5084       C  0.46342384  0.20352012  0.18818743    -0.14300
H5085       H  0.44251309  0.20096098  0.15716376     0.21100
H5086       H  0.43326574  0.15448027  0.20470045     0.17100
H5087       H  0.40705272  0.14162668  0.18252455     0.19600
H5088       H  0.46678541  0.21517142  0.18017463     0.13000
C5089       C  0.54606894  0.31409933  0.30985827     0.16800
C5090       C  0.55229567  0.32161297  0.32608029    -0.32200
C5091       C  0.56941529  0.32965559  0.32611704     0.21200
C5092       C  0.57963889  0.33060701  0.31061588     0.03400
C5093       C  0.57345422  0.32309172  0.29448534    -0.21900
C5094       C  0.55661313  0.31465362  0.29456233     0.12600
S5095       S  0.52622936  0.30263757  0.30709710    -0.05600
C5096       C  0.53264144  0.29806965  0.28534727    -0.09100
C5097       C  0.54902458  0.30544690  0.28053023    -0.25700
S5098       S  0.59996747  0.34092543  0.31326078    -0.02900
C5099       C  0.59496033  0.34354660  0.33566565    -0.16300
C5100       C  0.57821307  0.33701525  0.34062256    -0.14300
H5101       H  0.54435993  0.32084370  0.33820749     0.21100
H5102       H  0.58160978  0.32343270  0.28248178     0.17100
H5103       H  0.55538152  0.30356109  0.26760193     0.19600
H5104       H  0.57286477  0.33758161  0.35411744     0.13000
C5105       C  0.56076233  0.18100690  0.28986321     0.16800
C5106       C  0.56520003  0.16573375  0.29991462    -0.32200
C5107       C  0.57815317  0.16768369  0.31358627     0.21200
C5108       C  0.58649847  0.18406096  0.31699946     0.03400
C5109       C  0.58238685  0.19923004  0.30663848    -0.21900
C5110       C  0.56930255  0.19731603  0.29306928     0.12600
S5111       S  0.54384740  0.18194661  0.27424079    -0.05600
C5112       C  0.54829548  0.20456871  0.27200887    -0.09100
C5113       C  0.56242922  0.21081261  0.28260863    -0.25700
S5114       S  0.60113452  0.18384246  0.33483263    -0.02900
C5115       C  0.59597625  0.16145417  0.33760746    -0.16300
C5116       C  0.58365605  0.15461450  0.32531253    -0.14300
H5117       H  0.55839876  0.15303333  0.29760230     0.21100
H5118       H  0.58868859  0.21209680  0.30940646     0.17100
H5119       H  0.56655208  0.22475890  0.28360539     0.19600
H5120       H  0.57882583  0.14086770  0.32517010     0.13000
C5121       C  0.56537800  0.29347366  0.18036136     0.16800
C5122       C  0.57948617  0.30505141  0.17574737    -0.32200
C5123       C  0.57640126  0.31733743  0.16184011     0.21200
C5124       C  0.56016282  0.31777929  0.15257640     0.03400
C5125       C  0.54605109  0.30614446  0.15716172    -0.21900
C5126       C  0.54900287  0.29412064  0.17135917     0.12600
S5127       S  0.56586278  0.27904159  0.19809919    -0.05600
C5128       C  0.54357119  0.27422274  0.19376570    -0.09100
C5129       C  0.53646735  0.28293120  0.17887558    -0.25700
S5130       S  0.55908392  0.33384163  0.13624478    -0.02900
C5131       C  0.58063677  0.34020694  0.14219261    -0.16300
C5132       C  0.58811871  0.33030459  0.15608120    -0.14300
H5133       H  0.59211560  0.30489650  0.18307785     0.21100
H5134       H  0.53317199  0.30679830  0.15032003     0.17100
H5135       H  0.52252445  0.28218893  0.17462252     0.19600
H5136       H  0.60139502  0.33260426  0.16172485     0.13000
C5137       C  0.43719944  0.31553226  0.20457066     0.16800
C5138       C  0.43069917  0.33118659  0.19646185    -0.32200
C5139       C  0.41934647  0.32914447  0.18146896     0.21200
C5140       C  0.41430854  0.31230918  0.17507192     0.03400
C5141       C  0.42074277  0.29669769  0.18319114    -0.21900
C5142       C  0.43242036  0.29874682  0.19788012     0.12600
S5143       S  0.45251322  0.31501421  0.22181541    -0.05600
C5144       C  0.45287081  0.29202719  0.21941491    -0.09100
C5145       C  0.44134341  0.28524081  0.20637372    -0.25700
S5146       S  0.40077241  0.31262592  0.15650964    -0.02900
C5147       C  0.40230455  0.33569196  0.15714305    -0.16300
C5148       C  0.41248359  0.34266388  0.17116473    -0.14300
H5149       H  0.43477322  0.34435554  0.20124363     0.21100
H5150       H  0.41727027  0.28353586  0.17793205     0.17100
H5151       H  0.44036937  0.27119408  0.20259419     0.19600
H5152       H  0.41495250  0.35684533  0.17343660     0.13000
C5153       C  0.43615959  0.21545231  0.31112429     0.16800
C5154       C  0.42016216  0.20706325  0.31652442    -0.32200
C5155       C  0.42162736  0.19156295  0.32715014     0.21200
C5156       C  0.43822206  0.18515380  0.33278379     0.03400
C5157       C  0.45414552  0.19370324  0.32766679    -0.21900
C5158       C  0.45271031  0.20869113  0.31644155     0.12600
S5159       S  0.43747520  0.23261481  0.29592183    -0.05600
C5160       C  0.46045862  0.22996563  0.29620922    -0.09100
C5161       C  0.46666048  0.21701255  0.30797583    -0.25700
S5162       S  0.43732230  0.16565573  0.34472367    -0.02900
C5163       C  0.41436211  0.16575134  0.34159057    -0.16300
C5164       C  0.40783080  0.18046496  0.33223901    -0.14300
H5165       H  0.40721320  0.21179279  0.31181909     0.21100
H5166       H  0.46713179  0.18829872  0.33143474     0.17100
H5167       H  0.48057633  0.21288586  0.30912607     0.19600
H5168       H  0.39380712  0.18256501  0.32887528     0.13000
C5169       C  0.56370112  0.43131537  0.40682648     0.16800
C5170       C  0.55162574  0.44547137  0.40949026    -0.32200
C5171       C  0.53849878  0.44332094  0.42277656     0.21200
C5172       C  0.53715537  0.42762702  0.43268639     0.03400
C5173       C  0.54896585  0.41332143  0.42974773    -0.21900
C5174       C  0.56236597  0.41564189  0.41678850     0.12600
S5175       S  0.58140986  0.43176049  0.39229181    -0.05600
C5176       C  0.58706862  0.41068488  0.39987719    -0.09100
C5177       C  0.57574259  0.40372536  0.41280475    -0.25700
S5178       S  0.52180446  0.42846392  0.44961134    -0.02900
C5179       C  0.51755309  0.45040807  0.44366993    -0.16300
C5180       C  0.52703839  0.45632902  0.42880997    -0.14300
H5181       H  0.55288550  0.45790682  0.40207509     0.21100
H5182       H  0.54826046  0.40123094  0.43777895     0.17100
H5183       H  0.57734317  0.39068668  0.41902200     0.19600
H5184       H  0.52682749  0.46995971  0.42375010     0.13000
C5185       C  0.44217848  0.56775696  0.54058103     0.16800
C5186       C  0.42731246  0.57867561  0.54421658    -0.32200
C5187       C  0.42259541  0.58125155  0.56224670     0.21200
C5188       C  0.43231144  0.57341207  0.57610830     0.03400
C5189       C  0.44727816  0.56253877  0.57246298    -0.21900
C5190       C  0.45197725  0.55988336  0.55437172     0.12600
S5191       S  0.44886395  0.56168112  0.51956332    -0.05600
C5192       C  0.46503778  0.54826176  0.52931432    -0.09100
C5193       C  0.46530609  0.54880560  0.54796876    -0.25700
S5194       S  0.42406452  0.57790011  0.59706887    -0.02900
C5195       C  0.40730147  0.59033001  0.58699029    -0.16300
C5196       C  0.40827009  0.59099345  0.56839796    -0.14300
H5197       H  0.41948637  0.58455473  0.53342264     0.21100
H5198       H  0.45470273  0.55613680  0.58323224     0.17100
H5199       H  0.47377815  0.54046053  0.55635882     0.19600
H5200       H  0.39881926  0.59805887  0.55985963     0.13000
C5201       C  0.43546913  0.56962072  0.40297276     0.16800
C5202       C  0.44890638  0.55702530  0.40643593    -0.32200
C5203       C  0.44507351  0.54344966  0.41880146     0.21200
C5204       C  0.42844667  0.54212139  0.42705030     0.03400
C5205       C  0.41476443  0.55438897  0.42313428    -0.21900
C5206       C  0.41879282  0.56828878  0.41114131     0.12600
S5207       S  0.43798679  0.58781385  0.38934489    -0.05600
C5208       C  0.41638257  0.59366664  0.39479798    -0.09100
C5209       C  0.40771192  0.58209807  0.40641917    -0.25700
S5210       S  0.42746944  0.52643572  0.44367433    -0.02900
C5211       C  0.44990854  0.52221880  0.43989340    -0.16300
C5212       C  0.45727650  0.53172120  0.42577740    -0.14300
H5213       H  0.46208087  0.55827092  0.40043530     0.21100
H5214       H  0.40190226  0.55370442  0.42984768     0.17100
H5215       H  0.39400067  0.58367123  0.41096455     0.19600
H5216       H  0.47135989  0.53154972  0.42215045     0.13000
C5217       C  0.42501181  0.44499646  0.54101013     0.16800
C5218       C  0.41179278  0.44199875  0.55398469    -0.32200
C5219       C  0.41340467  0.42655312  0.56458138     0.21200
C5220       C  0.42726877  0.41438617  0.56203238     0.03400
C5221       C  0.44032407  0.41726582  0.54891537    -0.21900
C5222       C  0.43897562  0.43292531  0.53865870     0.12600
S5223       S  0.42657003  0.46385343  0.52816617    -0.05600
C5224       C  0.44651004  0.45558951  0.51996406    -0.09100
C5225       C  0.45128017  0.43885644  0.52647642    -0.25700
S5226       S  0.42718044  0.39667642  0.57645835    -0.02900
C5227       C  0.40845287  0.40589362  0.58616623    -0.16300
C5228       C  0.40251428  0.42174542  0.57853519    -0.14300
H5229       H  0.40110188  0.45158906  0.55614982     0.21100
H5230       H  0.45138499  0.40800709  0.54718966     0.17100
H5231       H  0.46362916  0.43189373  0.52329628     0.19600
H5232       H  0.39094035  0.42928378  0.58300973     0.13000
C5233       C  0.58411237  0.55558653  0.42149344     0.16800
C5234       C  0.57562721  0.54050554  0.42883007    -0.32200
C5235       C  0.56515287  0.54304011  0.44422235     0.21200
C5236       C  0.56357320  0.55971550  0.45240436     0.03400
C5237       C  0.57222105  0.57484013  0.44511651    -0.21900
C5238       C  0.58227034  0.57240579  0.42932647     0.12600
S5239       S  0.59627000  0.55542443  0.40210280    -0.05600
C5240       C  0.59846270  0.57842172  0.40411821    -0.09100
C5241       C  0.59049875  0.58558258  0.41939387    -0.25700
S5242       S  0.54913575  0.55997824  0.47033803    -0.02900
C5243       C  0.54476522  0.53757390  0.46622084    -0.16300
C5244       C  0.55446278  0.53036531  0.45208510    -0.14300
H5245       H  0.57656677  0.52746650  0.42240138     0.21100
H5246       H  0.57060730  0.58802800  0.45106659     0.17100
H5247       H  0.59030655  0.59975485  0.42272958     0.19600
H5248       H  0.55298786  0.51671025  0.44717667     0.13000
C5249       C  0.55280307  0.45558549  0.55982442     0.16800
C5250       C  0.55930911  0.44815547  0.57598066    -0.32200
C5251       C  0.56951469  0.43227153  0.57487807     0.21200
C5252       C  0.57331340  0.42439579  0.55841843     0.03400
C5253       C  0.56681135  0.43175760  0.54238675    -0.21900
C5254       C  0.55639326  0.44734508  0.54351185     0.12600
S5255       S  0.53922883  0.47414477  0.55802990    -0.05600
C5256       C  0.53809071  0.47030624  0.53516801    -0.09100
C5257       C  0.54800100  0.45565507  0.52943902    -0.25700
S5258       S  0.58569265  0.40519885  0.55968175    -0.02900
C5259       C  0.58545867  0.40735441  0.58272876    -0.16300
C5260       C  0.57648947  0.42249990  0.58895925    -0.14300
H5261       H  0.55623884  0.45424735  0.58882976     0.21100
H5262       H  0.56944763  0.42537532  0.52957173     0.17100
H5263       H  0.54842549  0.45086682  0.51567750     0.19600
H5264       H  0.57497171  0.42598010  0.60300962     0.13000
loop_ 
_geom_bond_atom_site_label_1 
_geom_bond_atom_site_label_2 
_geom_bond_distance 
_geom_bond_site_symmetry_2 
_ccdc_geom_bond_type 
O1           C17   1.272       .  A
O1           Zn7   2.009       .  S
C2           O18   1.274       .  A
C2           O15   1.271       .  A
C2         C5211   1.465       .  S
O3           C16   1.281       .  A
O3          Cd10   2.119       .  S
O4           C22   1.271       .  A
O4          Cd13   2.047       .  S
O5           C19   1.273       .  A
O5           Cd9   2.054       .  S
O6           C17   1.271       .  A
O6           Cd9   2.060       .  S
Zn7          O18   2.010       .  S
Zn7          O20   1.987       .  S
Zn7          O12   1.923       .  S
O8           C19   1.272       .  A
O8          Cd13   2.056       .  S
Cd9          O11   2.040       .  S
Cd9          O12   1.981       .  S
Cd10         O14   2.120       .  S
Cd10         O23   2.123       .  S
Cd10         O12   2.030       .  S
O11          C21   1.272       .  A
O12         Cd13   1.984       .  S
Cd13         O15   2.052       .  S
O14          C21   1.281       .  A
C16          O20   1.272       .  A
C16        C5243   1.474       .  S
C17        C5179   1.471       .  S
C19        C5224   1.465       .  S
C21        C5256   1.474       .  S
C22          O23   1.282       .  A
C22        C5192   1.473       .  S
O24          C40   1.275       .  A
O24         Zn30   2.031       .  S
C25          O41   1.274       .  A
C25          O38   1.274       .  A
C25        C5112   1.472       .  S
O26          C39   1.274       .  A
O26         Cd33   2.082       .  S
O27          C45   1.272       .  A
O27         Cd36   2.050       .  S
O28          C42   1.274       .  A
O28         Cd32   2.068       .  S
O29          C40   1.273       .  A
O29         Cd32   2.059       .  S
Zn30         O41   2.022       .  S
Zn30         O43   1.998       .  S
Zn30         O35   1.932       .  S
O31          C42   1.274       .  A
O31         Cd36   2.063       .  S
Cd32         O34   2.038       .  S
Cd32         O35   1.988       .  S
Cd33         O37   2.088       .  S
Cd33         O46   2.090       .  S
Cd33         O35   2.027       .  S
O34          C44   1.271       .  A
O35         Cd36   1.986       .  S
Cd36         O38   2.069       .  S
O37          C44   1.276       .  A
C39          O43   1.273       .  A
C39        C5160   1.463       .  S
C40        C5083   1.475       .  S
C42        C5128   1.471       .  S
C44        C5144   1.461       .  S
C45          O46   1.276       .  A
C45        C5096   1.468       .  S
C47        C5032   1.478       .  S
C47          N48   1.358       .  A
C47          N52   1.358       .  A
N48          C49   1.360       .  A
C49        C5048   1.481       .  S
C49          N50   1.362       .  A
N50          C51   1.363       .  A
C51        C5064   1.479       .  S
C51          N52   1.360       .  A
C53        C5000   1.478       .  S
C53          N54   1.362       .  A
C53          N58   1.364       .  A
N54          C55   1.360       .  A
C55        C4984   1.471   1_565  S
C55          N56   1.353       .  A
N56          C57   1.353       .  A
C57        C5019   1.474       .  S
C57          N58   1.361       .  A
C59        C4952   1.474       .  S
C59          N60   1.360       .  A
C59          N64   1.359       .  A
N60          C61   1.360       .  A
C61        C4968   1.471       .  S
C61          N62   1.358       .  A
N62          C63   1.357       .  A
C63        C4936   1.471       .  S
C63          N64   1.357       .  A
C65        C4888   1.475       .  S
C65          N66   1.356       .  A
C65          N70   1.360       .  A
N66          C67   1.356       .  A
C67        C4920   1.476   1_565  S
C67          N68   1.360       .  A
N68          C69   1.362       .  A
C69        C4904   1.477       .  S
C69          N70   1.362       .  A
N71          C76   1.353       .  A
N71          C75   1.352       .  A
N71         H103   1.027       .  S
N72          C79   1.352       .  A
N72          C80   1.352       .  A
N73          C78   1.355       .  A
N73          C77   1.356       .  A
N73         H104   1.032       .  S
N74          C81   1.352       .  A
N74          C82   1.350       .  A
C75          C83   1.388       .  A
C75          C91   1.416       .  A
C76          C92   1.417       .  A
C76          C84   1.388       .  A
C77          C85   1.387       .  A
C77          C94   1.419       .  A
C78          C93   1.419       .  A
C78          C86   1.387       .  A
C79          C91   1.414       .  A
C79          C87   1.386       .  A
C80          C94   1.416       .  A
C80          C88   1.387       .  A
C81          C89   1.387       .  A
C81          C92   1.416       .  A
C82          C90   1.387       .  A
C82          C93   1.414       .  A
C83          C84   1.372       .  A
C83          H95   1.082       .  S
C84          H96   1.082       .  S
C85          C86   1.374       .  A
C85          H97   1.082       .  S
C86          H98   1.082       .  S
C87          C88   1.373       .  A
C87          H99   1.082       .  S
C88         H100   1.082       .  S
C89          C90   1.374       .  A
C89         H101   1.082       .  S
C90         H102   1.082       .  S
C91        C4971   1.476       .  S
C92        C4907   1.479       .  S
C93        C4859   1.478       .  S
C94        C4872   1.485       .  S
N105        C110   1.354       .  A
N105        C109   1.354       .  A
N105        H137   1.026       .  S
N106        C113   1.352       .  A
N106        C114   1.353       .  A
N107        C112   1.352       .  A
N107        C111   1.353       .  A
N107        H138   1.030       .  S
N108        C115   1.352       .  A
N108        C116   1.351       .  A
C109        C117   1.388       .  A
C109        C125   1.419       .  A
C110        C126   1.420       .  A
C110        C118   1.388       .  A
C111        C119   1.388       .  A
C111        C128   1.416       .  A
C112        C127   1.413       .  A
C112        C120   1.386       .  A
C113        C125   1.418       .  A
C113        C121   1.387       .  A
C114        C128   1.418       .  A
C114        C122   1.387       .  A
C115        C123   1.386       .  A
C115        C126   1.415       .  A
C116        C124   1.386       .  A
C116        C127   1.414       .  A
C117        C118   1.375       .  A
C117        H129   1.082       .  S
C118        H130   1.082       .  S
C119        C120   1.374       .  A
C119        H131   1.082       .  S
C120        H132   1.082       .  S
C121        C122   1.374       .  A
C121        H133   1.082       .  S
C122        H134   1.082       .  S
C123        C124   1.374       .  A
C123        H135   1.082       .  S
C124        H136   1.082       .  S
C125       C5016   1.481       .  S
C126       C4955   1.480       .  S
C127       C4843   1.476       .  S
C128       C4827   1.482       .  S
N139        C144   1.354       .  A
N139        C143   1.352       .  A
N139        H171   1.037       .  S
N140        C147   1.353       .  A
N140        C148   1.352       .  A
N141        C146   1.355       .  A
N141        C145   1.354       .  A
N141        H172   1.038       .  S
N142        C149   1.353       .  A
N142        C150   1.351       .  A
C143        C151   1.387       .  A
C143        C159   1.415       .  A
C144        C160   1.414       .  A
C144        C152   1.387       .  A
C145        C153   1.386       .  A
C145        C162   1.415       .  A
C146        C161   1.418       .  A
C146        C154   1.388       .  A
C147        C159   1.414       .  A
C147        C155   1.386       .  A
C148        C162   1.415       .  A
C148        C156   1.387       .  A
C149        C157   1.385       .  A
C149        C160   1.413       .  A
C150        C158   1.387       .  A
C150        C161   1.415       .  A
C151        C152   1.374       .  A
C151        H163   1.082       .  S
C152        H164   1.082       .  S
C153        C154   1.376       .  A
C153        H165   1.082       .  S
C154        H166   1.082       .  S
C155        C156   1.374       .  A
C155        H167   1.082       .  S
C156        H168   1.082       .  S
C157        C158   1.373       .  A
C157        H169   1.082       .  S
C158        H170   1.082       .  S
C159       C4891   1.480       .  S
C160       C5067   1.483       .  S
C161       C4808   1.487       .  S
C162       C4792   1.481       .  S
N173        C178   1.353       .  A
N173        C177   1.355       .  A
N173        H205   1.036       .  S
N174        C181   1.353       .  A
N174        C182   1.351       .  A
N175        C180   1.353       .  A
N175        C179   1.354       .  A
N175        H206   1.037       .  S
N176        C183   1.353       .  A
N176        C184   1.353       .  A
C177        C185   1.386       .  A
C177        C193   1.414       .  A
C178        C194   1.417       .  A
C178        C186   1.389       .  A
C179        C187   1.388       .  A
C179        C196   1.417       .  A
C180        C195   1.414       .  A
C180        C188   1.387       .  A
C181        C193   1.411       .  A
C181        C189   1.384       .  A
C182        C196   1.416       .  A
C182        C190   1.388       .  A
C183        C191   1.386       .  A
C183        C194   1.416       .  A
C184        C192   1.387       .  A
C184        C195   1.416       .  A
C185        C186   1.373       .  A
C185        H197   1.082       .  S
C186        H198   1.082       .  S
C187        C188   1.373       .  A
C187        H199   1.082       .  S
C188        H200   1.082       .  S
C189        C190   1.372       .  A
C189        H201   1.082       .  S
C190        H202   1.082       .  S
C191        C192   1.375       .  A
C191        H203   1.082       .  S
C192        H204   1.082       .  S
C193       C5035   1.482       .  S
C194       C4939   1.482       .  S
C195       C4776   1.481       .  S
C196       C4760   1.486       .  S
N207        C212   1.353       .  A
N207        C211   1.354       .  A
N207        H239   1.034       .  S
N208        C215   1.353       .  A
N208        C216   1.352       .  A
N209        C214   1.355       .  A
N209        C213   1.354       .  A
N209        H240   1.032       .  S
N210        C217   1.355       .  A
N210        C218   1.354       .  A
C211        C219   1.387       .  A
C211        C227   1.416       .  A
C212        C228   1.415       .  A
C212        C220   1.387       .  A
C213        C221   1.388       .  A
C213        C230   1.419       .  A
C214        C229   1.421       .  A
C214        C222   1.388       .  A
C215        C227   1.415       .  A
C215        C223   1.386       .  A
C216        C230   1.417       .  A
C216        C224   1.388       .  A
C217        C225   1.384       .  A
C217        C228   1.417       .  A
C218        C226   1.388       .  A
C218        C229   1.422       .  A
C219        C220   1.374       .  A
C219        H231   1.082       .  S
C220        H232   1.082       .  S
C221        C222   1.377       .  A
C221        H233   1.082       .  S
C222        H234   1.082       .  S
C223        C224   1.374       .  A
C223        H235   1.082       .  S
C224        H236   1.082       .  S
C225        C226   1.373       .  A
C225        H237   1.082       .  S
C226        H238   1.082       .  S
C227       C5051   1.484       .  S
C228       C5003   1.485       .  S
C229       C4728   1.492       .  S
C230       C4744   1.480       .  S
N241        C246   1.354       .  A
N241        C245   1.351       .  A
N241        H273   1.034       .  S
N242        C249   1.351       .  A
N242        C250   1.352       .  A
N243        C248   1.351       .  A
N243        C247   1.352       .  A
N243        H274   1.032       .  S
N244        C251   1.352       .  A
N244        C252   1.350       .  A
C245        C253   1.386       .  A
C245        C261   1.414       .  A
C246        C262   1.418       .  A
C246        C254   1.388       .  A
C247        C255   1.388       .  A
C247        C264   1.415       .  A
C248        C263   1.414       .  A
C248        C256   1.388       .  A
C249        C261   1.415       .  A
C249        C257   1.387       .  A
C250        C264   1.415       .  A
C250        C258   1.386       .  A
C251        C259   1.386       .  A
C251        C262   1.415       .  A
C252        C260   1.387       .  A
C252        C263   1.415       .  A
C253        C254   1.374       .  A
C253        H265   1.082       .  S
C254        H266   1.081       .  S
C255        C256   1.372       .  A
C255        H267   1.082       .  S
C256        H268   1.082       .  S
C257        C258   1.373       .  A
C257        H269   1.082       .  S
C258        H270   1.082       .  S
C259        C260   1.372       .  A
C259        H271   1.082       .  S
C260        H272   1.082       .  S
C261       C4987   1.476       .  S
C262       C4923   1.482       .  S
C263       C4696   1.472       .  S
C264       C4715   1.477       .  S
O275        C291   1.275       .  A
O275       Zn281   2.029       .  S
C276        O292   1.276       .  A
C276        O289   1.273       .  A
C276       C4648   1.471       .  S
O277        C290   1.275       .  A
O277       Cd284   2.085       .  S
O278        C296   1.272       .  A
O278       Cd287   2.046       .  S
O279        C293   1.271       .  A
O279       Cd283   2.043       .  S
O280        C291   1.273       .  A
O280       Cd283   2.066       .  S
Zn281       O292   2.028       .  S
Zn281       O294   1.996       .  S
Zn281       O286   1.928       .  S
O282        C293   1.273       .  A
O282       Cd287   2.071       .  S
Cd283       O285   2.031       .  S
Cd283       O286   1.980       .  S
Cd284       O288   2.107       .  S
Cd284       O297   2.105       .  S
Cd284       O286   2.028       .  S
O285        C295   1.271       .  A
O286       Cd287   1.987       .  S
Cd287       O289   2.057       .  S
O288        C295   1.279       .  A
C290        O294   1.273       .  A
C290       C4603   1.463       .  S
C291       C4683   1.475       .  S
C293       C4632   1.464       .  S
C295       C4616   1.470       .  S
C296        O297   1.278       .  A
C296       C4664   1.472       .  S
O298        C314   1.277       .  A
O298       Zn304   2.042       .  S
C299        O315   1.276       .  A
C299        O312   1.270       .  A
C299       C4504   1.470       .  S
O300        C313   1.279       .  A
O300       Cd307   2.106       .  S
O301        C319   1.271       .  A
O301       Cd310   2.041       .  S
O302        C316   1.270       .  A
O302       Cd306   2.048       .  S
O303        C314   1.272       .  A
O303       Cd306   2.055       .  S
Zn304       O315   2.037       .  S
Zn304       O317   2.005       .  S
Zn304       O309   1.940       .  S
O305        C316   1.273       .  A
O305       Cd310   2.063       .  S
Cd306       O308   2.040       .  S
Cd306       O309   1.985       .  S
Cd307       O311   2.120       .  S
Cd307       O320   2.112       .  S
Cd307       O309   2.031       .  S
O308        C318   1.271       .  A
O309       Cd310   1.990       .  S
Cd310       O312   2.046       .  S
O311        C318   1.281       .  A
C313        O317   1.274       .  A
C313       C4568   1.476       .  S
C314       C4520   1.475       .  S
C316       C4584   1.465       .  S
C318       C4536   1.475       .  S
C319        O320   1.279       .  A
C319       C4555   1.469       .  S
O321        C337   1.274       .  A
O321       Zn327   2.023       .  S
C322        O338   1.272       .  A
C322        O335   1.273       .  A
C322       C4459   1.468       .  S
O323        C336   1.276       .  A
O323       Cd330   2.093       .  S
O324        C342   1.273       .  A
O324       Cd333   2.045       .  S
O325        C339   1.273       .  A
O325       Cd329   2.060       .  S
O326        C337   1.273       .  A
O326       Cd329   2.058       .  S
Zn327       O338   2.004       .  S
Zn327       O340   1.984       .  S
Zn327       O332   1.932       .  S
O328        C339   1.273       .  A
O328       Cd333   2.067       .  S
Cd329       O331   2.034       .  S
Cd329       O332   1.981       .  S
Cd330       O334   2.112       .  S
Cd330       O343   2.110       .  S
Cd330       O332   2.032       .  S
O331        C341   1.270       .  A
O332       Cd333   1.991       .  S
Cd333       O335   2.067       .  S
O334        C341   1.279       .  A
C336        O340   1.271       .  A
C336       C4472   1.463       .  S
C337       C4747   1.471       .  S
C339       C4443   1.471       .  S
C341       C4488   1.469       .  S
C342        O343   1.280       .  A
C342       C4424   1.472       .  S
O344        C360   1.272       .  A
O344       Zn350   2.002       .  S
C345        O361   1.273       .  A
C345        O358   1.271       .  A
C345       C4344   1.473       .  S
O346        C359   1.279       .  A
O346       Cd353   2.113       .  S
O347        C365   1.269       .  A
O347       Cd356   2.028       .  S
O348        C362   1.275       .  A
O348       Cd352   2.082   1_554  S
O349        C360   1.277       .  A
O349       Cd352   2.077       .  S
Zn350       O361   2.029   1_556  S
Zn350       O363   1.969       .  S
Zn350       O355   1.930       .  S
O351        C362   1.271       .  A
O351       Cd356   2.047       .  S
Cd352       O354   2.043       .  S
Cd352       O355   1.994       .  S
Cd353       O357   2.116       .  S
Cd353       O366   2.121   1_556  S
Cd353       O355   2.037       .  S
O354        C364   1.272       .  A
O355       Cd356   1.971   1_556  S
Cd356       O358   2.049       .  S
O357        C364   1.281       .  A
C359        O363   1.269       .  A
C359       C4875   1.465       .  S
C360       C4363   1.469       .  S
C362       C4395   1.471       .  S
C364       C4376   1.474       .  S
C365        O366   1.281       .  A
C365       C4408   1.473       .  S
O367        C383   1.273       .  A
O367       Zn373   2.010       .  S
C368        O384   1.272       .  A
C368        O381   1.274       .  A
C368       C4779   1.473       .  S
O369        C382   1.278       .  A
O369       Cd376   2.111   1_556  S
O370        C388   1.272       .  A
O370       Cd379   2.043   1_554  S
O371        C385   1.276       .  A
O371       Cd375   2.079   1_654  S
O372        C383   1.276       .  A
O372       Cd375   2.079       .  S
Zn373       O384   2.002   1_455  S
Zn373       O386   1.988       .  S
Zn373       O378   1.923   1_455  S
O374        C385   1.275       .  A
O374       Cd379   2.076   1_554  S
Cd375       O377   2.044   1_556  S
Cd375       O378   1.989   1_455  S
Cd376       O380   2.101       .  S
Cd376       O389   2.106   1_455  S
Cd376       O378   2.032   1_454  S
O377        C387   1.272       .  A
O378       Cd379   1.994       .  S
Cd379       O381   2.076       .  S
O380        C387   1.278       .  A
C382        O386   1.271       .  A
C382       C4280   1.471       .  S
C383       C4312   1.473       .  S
C385       C4328   1.476       .  S
C387       C4267   1.468       .  S
C388        O389   1.279       .  A
C388       C4296   1.471       .  S
O390        C406   1.275       .  A
O390       Zn396   2.028   1_545  S
C391        O407   1.272       .  A
C391        O404   1.277       .  A
C391       C4232   1.473       .  S
O392        C405   1.275       .  A
O392       Cd399   2.096       .  S
O393        C411   1.273       .  A
O393       Cd402   2.050       .  S
O394        C408   1.274       .  A
O394       Cd398   2.069       .  S
O395        C406   1.274       .  A
O395       Cd398   2.066   1_545  S
Zn396       O407   1.994       .  S
Zn396       O409   1.982   1_565  S
Zn396       O401   1.924       .  S
O397        C408   1.277       .  A
O397       Cd402   2.081       .  S
Cd398       O400   2.045   1_565  S
Cd398       O401   1.982       .  S
Cd399       O403   2.095       .  S
Cd399       O412   2.099   1_545  S
Cd399       O401   2.029   1_545  S
O400        C410   1.272       .  A
O401       Cd402   1.996       .  S
Cd402       O404   2.092       .  S
O403        C410   1.278       .  A
C405        O409   1.270       .  A
C405       C4216   1.467       .  S
C406       C4248   1.474       .  S
C408       C4856   1.475       .  S
C410       C4184   1.466       .  S
C411        O412   1.278       .  A
C411       C4203   1.470       .  S
O413        C429   1.277       .  A
O413       Zn419   2.046       .  S
C414        O430   1.274       .  A
C414        O427   1.275       .  A
C414       C4136   1.475       .  S
O415        C428   1.278       .  A
O415       Cd422   2.107       .  S
O416        C434   1.271       .  A
O416       Cd425   2.040       .  S
O417        C431   1.274       .  A
O417       Cd421   2.074       .  S
O418        C429   1.274       .  A
O418       Cd421   2.057       .  S
Zn419       O430   2.018       .  S
Zn419       O432   2.000       .  S
Zn419       O424   1.938       .  S
O420        C431   1.274       .  A
O420       Cd425   2.071       .  S
Cd421       O423   2.041       .  S
Cd421       O424   1.978       .  S
Cd422       O426   2.110       .  S
Cd422       O435   2.105       .  S
Cd422       O424   2.030       .  S
O423        C433   1.272       .  A
O424       Cd425   1.993       .  S
Cd425       O427   2.076       .  S
O426        C433   1.278       .  A
C428        O432   1.273       .  A
C428       C4120   1.473       .  S
C429       C4152   1.476       .  S
C431       C4168   1.475       .  S
C433       C4104   1.469       .  S
C434        O435   1.279       .  A
C434       C4811   1.471       .  S
O436        C452   1.274       .  A
O436       Zn442   2.019       .  S
C437        O453   1.272       .  A
C437        O450   1.275       .  A
C437       C4040   1.471       .  S
O438        C451   1.279       .  A
O438       Cd445   2.108       .  S
O439        C457   1.271       .  A
O439       Cd448   2.038       .  S
O440        C454   1.272       .  A
O440       Cd444   2.051   1_655  S
O441        C452   1.272       .  A
O441       Cd444   2.054       .  S
Zn442       O453   2.006   1_455  S
Zn442       O455   1.977       .  S
Zn442       O447   1.930   1_455  S
O443        C454   1.275       .  A
O443       Cd448   2.076       .  S
Cd444       O446   2.026       .  S
Cd444       O447   1.976   1_455  S
Cd445       O449   2.123       .  S
Cd445       O458   2.117   1_455  S
Cd445       O447   2.039   1_455  S
O446        C456   1.269       .  A
O447       Cd448   1.991       .  S
Cd448       O450   2.072       .  S
O449        C456   1.280       .  A
C451        O455   1.270       .  A
C451       C4088   1.467       .  S
C452       C4075   1.468       .  S
C454       C4840   1.471       .  S
C456       C4027   1.470       .  S
C457        O458   1.281       .  A
C457       C4059   1.471       .  S
O459        C475   1.274       .  A
O459       Zn465   2.021   1_545  S
C460        O476   1.277       .  A
C460        O473   1.277       .  A
C460       C3979   1.478       .  S
O461        C474   1.278       .  A
O461       Cd468   2.113       .  S
O462        C480   1.272       .  A
O462       Cd471   2.048   1_565  S
O463        C477   1.275       .  A
O463       Cd467   2.078   1_554  S
O464        C475   1.273       .  A
O464       Cd467   2.069       .  S
Zn465       O476   2.024   1_556  S
Zn465       O478   2.004       .  S
Zn465       O470   1.934   1_566  S
O466        C477   1.275       .  A
O466       Cd471   2.075       .  S
Cd467       O469   2.043       .  S
Cd467       O470   1.992   1_556  S
Cd468       O472   2.109   1_565  S
Cd468       O481   2.106   1_556  S
Cd468       O470   2.030   1_566  S
O469        C479   1.271       .  A
O470       Cd471   1.997       .  S
Cd471       O473   2.082   1_545  S
O472        C479   1.280       .  A
C474        O478   1.272       .  A
C474       C4731   1.475       .  S
C475       C3963   1.473       .  S
C477       C3947   1.478       .  S
C479       C4011   1.468       .  S
C480        O481   1.279       .  A
C480       C3992   1.469       .  S
C482       C3912   1.470       .  S
C482        N483   1.359       .  A
C482        N487   1.355       .  A
N483        C484   1.360       .  A
C484       C3928   1.476       .  S
C484        N485   1.362       .  A
N485        C486   1.360       .  A
C486       C3899   1.475       .  S
C486        N487   1.355       .  A
N488        C493   1.352       .  A
N488        C492   1.353       .  A
N488        H520   1.027       .  S
N489        C496   1.352       .  A
N489        C497   1.350       .  A
N490        C495   1.352       .  A
N490        C494   1.351       .  A
N490        H521   1.031       .  S
N491        C498   1.349       .  A
N491        C499   1.350       .  A
C492        C500   1.388       .  A
C492        C508   1.419       .  A
C493        C509   1.419       .  A
C493        C501   1.388       .  A
C494        C502   1.389       .  A
C494        C511   1.415       .  A
C495        C510   1.414       .  A
C495        C503   1.387       .  A
C496        C508   1.416       .  A
C496        C504   1.387       .  A
C497        C511   1.414       .  A
C497        C505   1.387       .  A
C498        C506   1.387       .  A
C498        C509   1.413       .  A
C499        C507   1.386       .  A
C499        C510   1.412       .  A
C500        C501   1.374       .  A
C500        H512   1.082       .  S
C501        H513   1.082       .  S
C502        C503   1.372       .  A
C502        H514   1.082       .  S
C503        H515   1.082       .  S
C504        C505   1.374       .  A
C504        H516   1.082       .  S
C505        H517   1.082       .  S
C506        C507   1.371       .  A
C506        H518   1.082       .  S
C507        H519   1.082       .  S
C508       C3883   1.480       .  S
C509       C3915   1.474       .  S
C510       C4635   1.474       .  S
C511       C5208   1.471       .  S
C522       C3848   1.481       .  S
C522        N523   1.359       .  A
C522        N527   1.360       .  A
N523        C524   1.360       .  A
C524       C3864   1.478       .  S
C524        N525   1.361       .  A
N525        C526   1.360       .  A
C526       C3832   1.479       .  S
C526        N527   1.361       .  A
N528        C533   1.351       .  A
N528        C532   1.353       .  A
N528        H560   1.036       .  S
N529        C536   1.353       .  A
N529        C537   1.351       .  A
N530        C535   1.354       .  A
N530        C534   1.356       .  A
N530        H561   1.038       .  S
N531        C538   1.355       .  A
N531        C539   1.354       .  A
C532        C540   1.387       .  A
C532        C548   1.415       .  A
C533        C549   1.415       .  A
C533        C541   1.388       .  A
C534        C542   1.388       .  A
C534        C551   1.420       .  A
C535        C550   1.420       .  A
C535        C543   1.387       .  A
C536        C548   1.412       .  A
C536        C544   1.385       .  A
C537        C551   1.416       .  A
C537        C545   1.388       .  A
C538        C546   1.384       .  A
C538        C549   1.414       .  A
C539        C547   1.388       .  A
C539        C550   1.419       .  A
C540        C541   1.377       .  A
C540        H552   1.082       .  S
C541        H553   1.082       .  S
C542        C543   1.377       .  A
C542        H554   1.082       .  S
C543        H555   1.082       .  S
C544        C545   1.371       .  A
C544        H556   1.082       .  S
C545        H557   1.082       .  S
C546        C547   1.372       .  A
C546        H558   1.082       .  S
C547        H559   1.082       .  S
C548       C3816   1.481       .  S
C549       C3835   1.482       .  S
C550       C3800   1.492       .  S
C551       C4123   1.490       .  S
N562        C567   1.352       .  A
N562        C566   1.354       .  A
N562        H594   1.035       .  S
N563        C570   1.354       .  A
N563        C571   1.351       .  A
N564        C569   1.352       .  A
N564        C568   1.351       .  A
N564        H595   1.073       .  S
N565        C572   1.354       .  A
N565        C573   1.353       .  A
C566        C574   1.387       .  A
C566        C582   1.414       .  A
C567        C583   1.413       .  A
C567        C575   1.387       .  A
C568        C576   1.388       .  A
C568        C585   1.418       .  A
C569        C584   1.420       .  A
C569        C577   1.389       .  A
C570        C582   1.413       .  A
C570        C578   1.384       .  A
C571        C585   1.417       .  A
C571        C579   1.388       .  A
C572        C580   1.384       .  A
C572        C583   1.413       .  A
C573        C581   1.388       .  A
C573        C584   1.418       .  A
C574        C575   1.375       .  A
C574        H586   1.082       .  S
C575        H587   1.082       .  S
C576        C577   1.376       .  A
C576        H588   1.082       .  S
C577        H589   1.082       .  S
C578        C579   1.373       .  A
C578        H590   1.082       .  S
C579        H591   1.082       .  S
C580        C581   1.372       .  A
C580        H592   1.082       .  S
C581        H593   1.082       .  S
C582       C3851   1.486       .  S
C583       C3931   1.480       .  S
C584       C4411   1.492       .  S
C585       C3995   1.487       .  S
C596       C3784   1.478       .  S
C596        N597   1.361       .  A
C596        N601   1.360       .  A
N597        C598   1.361       .  A
C598       C3752   1.477       .  S
C598        N599   1.358       .  A
N599        C600   1.358       .  A
C600       C3768   1.478       .  S
C600        N601   1.359       .  A
C602       C3739   1.478       .  S
C602        N603   1.361       .  A
C602        N607   1.361       .  A
N603        C604   1.358       .  A
C604       C3819   1.475       .  S
C604        N605   1.357       .  A
N605        C606   1.356       .  A
C606       C3880   1.474       .  S
C606        N607   1.361       .  A
N608        C613   1.353       .  A
N608        C612   1.354       .  A
N608        H640   1.034       .  S
N609        C616   1.351       .  A
N609        C617   1.351       .  A
N610        C615   1.352       .  A
N610        C614   1.351       .  A
N610        H641   1.036       .  S
N611        C618   1.351       .  A
N611        C619   1.352       .  A
C612        C620   1.388       .  A
C612        C628   1.417       .  A
C613        C629   1.416       .  A
C613        C621   1.387       .  A
C614        C622   1.388       .  A
C614        C631   1.412       .  A
C615        C630   1.411       .  A
C615        C623   1.386       .  A
C616        C628   1.414       .  A
C616        C624   1.387       .  A
C617        C631   1.413       .  A
C617        C625   1.386       .  A
C618        C626   1.387       .  A
C618        C629   1.413       .  A
C619        C627   1.385       .  A
C619        C630   1.412       .  A
C620        C621   1.375       .  A
C620        H632   1.082       .  S
C621        H633   1.082       .  S
C622        C623   1.374       .  A
C622        H634   1.082       .  S
C623        H635   1.082       .  S
C624        C625   1.374       .  A
C624        H636   1.082       .  S
C625        H637   1.082       .  S
C626        C627   1.372       .  A
C626        H638   1.082       .  S
C627        H639   1.082       .  S
C628       C3736   1.479       .  S
C629       C3755   1.478       .  S
C630       C4235   1.478       .  S
C631       C4440   1.474       .  S
N642        C647   1.353       .  A
N642        C646   1.353       .  A
N642        H674   1.036       .  S
N643        C650   1.355       .  A
N643        C651   1.353       .  A
N644        C649   1.357       .  A
N644        C648   1.354       .  A
N644        H675   1.037       .  S
N645        C652   1.353       .  A
N645        C653   1.353       .  A
C646        C654   1.387       .  A
C646        C662   1.416       .  A
C647        C663   1.416       .  A
C647        C655   1.388       .  A
C648        C656   1.388       .  A
C648        C665   1.418       .  A
C649        C664   1.420       .  A
C649        C657   1.387       .  A
C650        C662   1.415       .  A
C650        C658   1.384       .  A
C651        C665   1.419       .  A
C651        C659   1.388       .  A
C652        C660   1.385       .  A
C652        C663   1.414       .  A
C653        C661   1.387       .  A
C653        C664   1.418       .  A
C654        C655   1.376       .  A
C654        H666   1.082       .  S
C655        H667   1.082       .  S
C656        C657   1.374       .  A
C656        H668   1.082       .  S
C657        H669   1.081       .  S
C658        C659   1.373       .  A
C658        H670   1.082       .  S
C659        H671   1.082       .  S
C660        C661   1.371       .  A
C660        H672   1.082       .  S
C661        H673   1.082       .  S
C662       C3867   1.484       .  S
C663       C3771   1.482       .  S
C664       C4571   1.495       .  S
C665       C5163   1.484       .  S
N676        C681   1.355       .  A
N676        C680   1.356       .  A
N676        H708   1.035       .  S
N677        C684   1.351       .  A
N677        C685   1.351       .  A
N678        C683   1.353       .  A
N678        C682   1.351       .  A
N678        H709   1.028       .  S
N679        C686   1.351       .  A
N679        C687   1.353       .  A
C680        C688   1.386       .  A
C680        C696   1.418       .  A
C681        C697   1.421       .  A
C681        C689   1.388       .  A
C682        C690   1.388       .  A
C682        C699   1.417       .  A
C683        C698   1.419       .  A
C683        C691   1.389       .  A
C684        C696   1.413       .  A
C684        C692   1.386       .  A
C685        C699   1.416       .  A
C685        C693   1.387       .  A
C686        C694   1.387       .  A
C686        C697   1.417       .  A
C687        C695   1.387       .  A
C687        C698   1.419       .  A
C688        C689   1.374       .  A
C688        H700   1.082       .  S
C689        H701   1.082       .  S
C690        C691   1.373       .  A
C690        H702   1.082       .  S
C691        H703   1.082       .  S
C692        C693   1.371       .  A
C692        H704   1.082       .  S
C693        H705   1.082       .  S
C694        C695   1.375       .  A
C694        H706   1.082       .  S
C695        H707   1.082       .  S
C696       C3896   1.482       .  S
C697       C3787   1.482       .  S
C698       C3723   1.481       .  S
C699       C4072   1.473       .  S
O710        C726   1.275       .  A
O710       Zn716   2.032       .  S
C711        O727   1.276       .  A
C711        O724   1.276       .  A
C711       C3688   1.474       .  S
O712        C725   1.277       .  A
O712       Cd719   2.097       .  S
O713        C731   1.272       .  A
O713       Cd722   2.045   1_565  S
O714        C728   1.272       .  A
O714       Cd718   2.056       .  S
O715        C726   1.272       .  A
O715       Cd718   2.056       .  S
Zn716       O727   2.026   1_545  S
Zn716       O729   1.992   1_545  S
Zn716       O721   1.937       .  S
O717        C728   1.275       .  A
O717       Cd722   2.085       .  S
Cd718       O720   2.038       .  S
Cd718       O721   1.975       .  S
Cd719       O723   2.107   1_565  S
Cd719       O732   2.100       .  S
Cd719       O721   2.036   1_565  S
O720        C730   1.272       .  A
O721       Cd722   1.988       .  S
Cd722       O724   2.068   1_545  S
O723        C730   1.278       .  A
C725        O729   1.271       .  A
C725       C3803   1.470       .  S
C726       C3675   1.474       .  S
C728       C3656   1.475       .  S
C730       C3704   1.471       .  S
C731        O732   1.277       .  A
C731       C4824   1.466       .  S
O733        C749   1.272       .  A
O733       Zn739   2.012   1_556  S
C734        O750   1.274       .  A
C734        O747   1.273       .  A
C734       C3640   1.470       .  S
O735        C748   1.278       .  A
O735       Cd742   2.112       .  S
O736        C754   1.272       .  A
O736       Cd745   2.041       .  S
O737        C751   1.275       .  A
O737       Cd741   2.074       .  S
O738        C749   1.274       .  A
O738       Cd741   2.059       .  S
Zn739       O750   2.006       .  S
Zn739       O752   1.973       .  S
Zn739       O744   1.915   1_554  S
O740        C751   1.274       .  A
O740       Cd745   2.068   1_556  S
Cd741       O743   2.042       .  S
Cd741       O744   1.979       .  S
Cd742       O746   2.087   1_554  S
Cd742       O755   2.090       .  S
Cd742       O744   2.026   1_554  S
O743        C753   1.272       .  A
O744       Cd745   1.982   1_556  S
Cd745       O747   2.068       .  S
O746        C753   1.276       .  A
C748        O752   1.270       .  A
C748       C3579   1.471       .  S
C749       C4712   1.470       .  S
C751       C3624   1.473       .  S
C753       C3595   1.464       .  S
C754        O755   1.277       .  A
C754       C3608   1.461       .  S
C756       C3528   1.470       .  S
C756        N757   1.357       .  A
C756        N761   1.359       .  A
N757        C758   1.357       .  A
C758       C3544   1.472       .  S
C758        N759   1.357       .  A
N759        C760   1.360       .  A
C760       C3560   1.474       .  S
C760        N761   1.360       .  A
C762       C3480   1.472       .  S
C762        N763   1.361       .  A
C762        N767   1.358       .  A
N763        C764   1.358       .  A
C764       C3515   1.474       .  S
C764        N765   1.357       .  A
N765        C766   1.357       .  A
C766       C3496   1.471       .  S
C766        N767   1.358       .  A
C768       C3464   1.478       .  S
C768        N769   1.359       .  A
C768        N773   1.361       .  A
N769        C770   1.358       .  A
C770       C3432   1.475       .  S
C770        N771   1.359       .  A
N771        C772   1.360       .  A
C772       C3448   1.480       .  S
C772        N773   1.361       .  A
C774       C3400   1.477       .  S
C774        N775   1.356       .  A
C774        N779   1.361       .  A
N775        C776   1.357       .  A
C776       C3387   1.474       .  S
C776        N777   1.360       .  A
N777        C778   1.361       .  A
C778       C3419   1.476       .  S
C778        N779   1.362       .  A
N780        C785   1.353       .  A
N780        C784   1.354       .  A
N780        H812   1.039       .  S
N781        C788   1.352       .  A
N781        C789   1.349       .  A
N782        C787   1.354       .  A
N782        C786   1.352       .  A
N782        H813   1.038       .  S
N783        C790   1.352       .  A
N783        C791   1.353       .  A
C784        C792   1.385       .  A
C784        C800   1.414       .  A
C785        C801   1.416       .  A
C785        C793   1.388       .  A
C786        C794   1.386       .  A
C786        C803   1.413       .  A
C787        C802   1.418       .  A
C787        C795   1.388       .  A
C788        C800   1.410       .  A
C788        C796   1.385       .  A
C789        C803   1.412       .  A
C789        C797   1.388       .  A
C790        C798   1.386       .  A
C790        C801   1.413       .  A
C791        C799   1.387       .  A
C791        C802   1.418       .  A
C792        C793   1.377       .  A
C792        H804   1.082       .  S
C793        H805   1.081       .  S
C794        C795   1.377       .  A
C794        H806   1.082       .  S
C795        H807   1.082       .  S
C796        C797   1.373       .  A
C796        H808   1.082       .  S
C797        H809   1.082       .  S
C798        C799   1.373       .  A
C798        H810   1.082       .  S
C799        H811   1.081       .  S
C800       C3451   1.483       .  S
C801       C3384   1.481       .  S
C802       C4379   1.493       .  S
C803       C4456   1.473       .  S
N814        C819   1.352       .  A
N814        C818   1.353       .  A
N814        H846   1.036       .  S
N815        C822   1.352       .  A
N815        C823   1.352       .  A
N816        C821   1.352       .  A
N816        C820   1.355       .  A
N816        H847   1.037       .  S
N817        C824   1.353       .  A
N817        C825   1.352       .  A
C818        C826   1.388       .  A
C818        C834   1.415       .  A
C819        C835   1.415       .  A
C819        C827   1.388       .  A
C820        C828   1.387       .  A
C820        C837   1.416       .  A
C821        C836   1.415       .  A
C821        C829   1.387       .  A
C822        C834   1.412       .  A
C822        C830   1.386       .  A
C823        C837   1.414       .  A
C823        C831   1.386       .  A
C824        C832   1.386       .  A
C824        C835   1.414       .  A
C825        C833   1.387       .  A
C825        C836   1.415       .  A
C826        C827   1.376       .  A
C826        H838   1.082       .  S
C827        H839   1.082       .  S
C828        C829   1.375       .  A
C828        H840   1.082       .  S
C829        H841   1.082       .  S
C830        C831   1.371       .  A
C830        H842   1.082       .  S
C831        H843   1.082       .  S
C832        C833   1.374       .  A
C832        H844   1.082       .  S
C833        H845   1.082       .  S
C834       C3435   1.478       .  S
C835       C3483   1.479       .  S
C836       C3627   1.479       .  S
C837       C3368   1.488       .  S
N848        C853   1.353       .  A
N848        C852   1.354       .  A
N848        H880   1.037       .  S
N849        C856   1.353       .  A
N849        C857   1.351       .  A
N850        C855   1.354       .  A
N850        C854   1.351       .  A
N850        H881   1.037       .  S
N851        C858   1.352       .  A
N851        C859   1.353       .  A
C852        C860   1.386       .  A
C852        C868   1.415       .  A
C853        C869   1.416       .  A
C853        C861   1.387       .  A
C854        C862   1.388       .  A
C854        C871   1.413       .  A
C855        C870   1.416       .  A
C855        C863   1.387       .  A
C856        C868   1.412       .  A
C856        C864   1.385       .  A
C857        C871   1.414       .  A
C857        C865   1.388       .  A
C858        C866   1.386       .  A
C858        C869   1.413       .  A
C859        C867   1.387       .  A
C859        C870   1.417       .  A
C860        C861   1.375       .  A
C860        H872   1.082       .  S
C861        H873   1.082       .  S
C862        C863   1.375       .  A
C862        H874   1.082       .  S
C863        H875   1.082       .  S
C864        C865   1.374       .  A
C864        H876   1.082       .  S
C865        H877   1.082       .  S
C866        C867   1.372       .  A
C866        H878   1.082       .  S
C867        H879   1.082       .  S
C868       C3467   1.482       .  S
C869       C3547   1.482       .  S
C870       C4539   1.489       .  S
C871       C5227   1.472       .  S
N882        C887   1.354       .  A
N882        C886   1.353       .  A
N882        H914   1.026       .  S
N883        C890   1.353       .  A
N883        C891   1.354       .  A
N884        C889   1.353       .  A
N884        C888   1.354       .  A
N884        H915   1.029       .  S
N885        C892   1.351       .  A
N885        C893   1.349       .  A
C886        C894   1.390       .  A
C886        C902   1.423       .  A
C887        C903   1.418       .  A
C887        C895   1.386       .  A
C888        C896   1.387       .  A
C888        C905   1.417       .  A
C889        C904   1.417       .  A
C889        C897   1.388       .  A
C890        C902   1.421       .  A
C890        C898   1.387       .  A
C891        C905   1.418       .  A
C891        C899   1.386       .  A
C892        C900   1.386       .  A
C892        C903   1.412       .  A
C893        C901   1.388       .  A
C893        C904   1.414       .  A
C894        C895   1.374       .  A
C894        H906   1.082       .  S
C895        H907   1.082       .  S
C896        C897   1.372       .  A
C896        H908   1.082       .  S
C897        H909   1.082       .  S
C898        C899   1.375       .  A
C898        H910   1.082       .  S
C899        H911   1.082       .  S
C900        C901   1.370       .  A
C900        H912   1.082       .  S
C901        H913   1.082       .  S
C902       C3416   1.484       .  S
C903       C3499   1.478       .  S
C904       C5147   1.475       .  S
C905       C4680   1.483       .  S
N916        C921   1.353       .  A
N916        C920   1.352       .  A
N916        H948   1.033       .  S
N917        C924   1.351       .  A
N917        C925   1.351       .  A
N918        C923   1.353       .  A
N918        C922   1.352       .  A
N918        H949   1.035       .  S
N919        C926   1.352       .  A
N919        C927   1.351       .  A
C920        C928   1.387       .  A
C920        C936   1.415       .  A
C921        C937   1.417       .  A
C921        C929   1.388       .  A
C922        C930   1.387       .  A
C922        C939   1.414       .  A
C923        C938   1.416       .  A
C923        C931   1.387       .  A
C924        C936   1.413       .  A
C924        C932   1.386       .  A
C925        C939   1.412       .  A
C925        C933   1.386       .  A
C926        C934   1.385       .  A
C926        C937   1.413       .  A
C927        C935   1.388       .  A
C927        C938   1.416       .  A
C928        C929   1.374       .  A
C928        H940   1.082       .  S
C929        H941   1.082       .  S
C930        C931   1.374       .  A
C930        H942   1.083       .  S
C931        H943   1.082       .  S
C932        C933   1.373       .  A
C932        H944   1.082       .  S
C933        H945   1.082       .  S
C934        C935   1.373       .  A
C934        H946   1.082       .  S
C935        H947   1.082       .  S
C936       C3531   1.477       .  S
C937       C3512   1.478       .  S
C938       C4008   1.482       .  S
C939       C4251   1.477       .  S
N950        C955   1.353       .  A
N950        C954   1.353       .  A
N950        H982   1.031       .  S
N951        C958   1.352       .  A
N951        C959   1.351       .  A
N952        C957   1.352       .  A
N952        C956   1.351       .  A
N952        H983   1.033       .  S
N953        C960   1.352       .  A
N953        C961   1.352       .  A
C954        C962   1.388       .  A
C954        C970   1.418       .  A
C955        C971   1.419       .  A
C955        C963   1.388       .  A
C956        C964   1.388       .  A
C956        C973   1.414       .  A
C957        C972   1.415       .  A
C957        C965   1.388       .  A
C958        C970   1.415       .  A
C958        C966   1.387       .  A
C959        C973   1.414       .  A
C959        C967   1.387       .  A
C960        C968   1.386       .  A
C960        C971   1.416       .  A
C961        C969   1.386       .  A
C961        C972   1.415       .  A
C962        C963   1.375       .  A
C962        H974   1.082       .  S
C963        H975   1.082       .  S
C964        C965   1.373       .  A
C964        H976   1.082       .  S
C965        H977   1.081       .  S
C966        C967   1.373       .  A
C966        H978   1.082       .  S
C967        H979   1.082       .  S
C968        C969   1.373       .  A
C968        H980   1.082       .  S
C969        H981   1.082       .  S
C970       C3563   1.479       .  S
C971       C3403   1.480       .  S
C972       C4315   1.479       .  S
C973       C3352   1.472       .  S
C984       C3339   1.478       .  S
C984        N985   1.356       .  A
C984        N989   1.364       .  A
N985        C986   1.354       .  A
C986       C3304   1.469       .  S
C986        N987   1.356       .  A
N987        C988   1.359       .  A
C988       C3320   1.480       .  S
C988        N989   1.365       .  A
N990        C995   1.350       .  A
N990        C994   1.353       .  A
N990       H1022   1.036       .  S
N991        C998   1.351       .  A
N991        C999   1.350       .  A
N992        C997   1.355       .  A
N992        C996   1.353       .  A
N992       H1023   1.035       .  S
N993       C1000   1.353       .  A
N993       C1001   1.354       .  A
C994       C1002   1.388       .  A
C994       C1010   1.414       .  A
C995       C1011   1.411       .  A
C995       C1003   1.387       .  A
C996       C1004   1.387       .  A
C996       C1013   1.418       .  A
C997       C1012   1.420       .  A
C997       C1005   1.387       .  A
C998       C1010   1.410       .  A
C998       C1006   1.385       .  A
C999       C1013   1.415       .  A
C999       C1007   1.388       .  A
C1000      C1008   1.384       .  A
C1000      C1011   1.413       .  A
C1001      C1009   1.388       .  A
C1001      C1012   1.420       .  A
C1002      C1003   1.373       .  A
C1002      H1014   1.082       .  S
C1003      H1015   1.082       .  S
C1004      C1005   1.376       .  A
C1004      H1016   1.081       .  S
C1005      H1017   1.082       .  S
C1006      C1007   1.372       .  A
C1006      H1018   1.082       .  S
C1007      H1019   1.082       .  S
C1008      C1009   1.372       .  A
C1008      H1020   1.082       .  S
C1009      H1021   1.081       .  S
C1010      C3307   1.477       .  S
C1011      C3288   1.476       .  S
C1012      C5240   1.492       .  S
C1013      C4155   1.478       .  S
C1024      C3259   1.470       .  S
C1024      N1025   1.362       .  A
C1024      N1029   1.355       .  A
N1025      C1026   1.362       .  A
C1026      C3240   1.476       .  S
C1026      N1027   1.360       .  A
N1027      C1028   1.355       .  A
C1028      C3272   1.469       .  S
C1028      N1029   1.353       .  A
C1030      C3192   1.474       .  S
C1030      N1031   1.359       .  A
C1030      N1035   1.358       .  A
N1031      C1032   1.358       .  A
C1032      C3211   1.472       .  S
C1032      N1033   1.359       .  A
N1033      C1034   1.358       .  A
C1034      C3224   1.475   1_554  S
C1034      N1035   1.359       .  A
C1036      C3176   1.469       .  S
C1036      N1037   1.356       .  A
C1036      N1041   1.356       .  A
N1037      C1038   1.358       .  A
C1038      C3291   1.472       .  S
C1038      N1039   1.362       .  A
N1039      C1040   1.360       .  A
C1040      C3163   1.474       .  S
C1040      N1041   1.357       .  A
N1042      C1047   1.351       .  A
N1042      C1046   1.353       .  A
N1042      H1074   1.036       .  S
N1043      C1050   1.352       .  A
N1043      C1051   1.350       .  A
N1044      C1049   1.355       .  A
N1044      C1048   1.350       .  A
N1044      H1075   1.039       .  S
N1045      C1052   1.350       .  A
N1045      C1053   1.350       .  A
C1046      C1054   1.389       .  A
C1046      C1062   1.416       .  A
C1047      C1063   1.411       .  A
C1047      C1055   1.386       .  A
C1048      C1056   1.386       .  A
C1048      C1065   1.410       .  A
C1049      C1064   1.416       .  A
C1049      C1057   1.387       .  A
C1050      C1062   1.412       .  A
C1050      C1058   1.386       .  A
C1051      C1065   1.411       .  A
C1051      C1059   1.387       .  A
C1052      C1060   1.385       .  A
C1052      C1063   1.409       .  A
C1053      C1061   1.386       .  A
C1053      C1064   1.412       .  A
C1054      C1055   1.376       .  A
C1054      H1066   1.081       .  S
C1055      H1067   1.082       .  S
C1056      C1057   1.377       .  A
C1056      H1068   1.082       .  S
C1057      H1069   1.081       .  S
C1058      C1059   1.375       .  A
C1058      H1070   1.082       .  S
C1059      H1071   1.082       .  S
C1060      C1061   1.374       .  A
C1060      H1072   1.082       .  S
C1061      H1073   1.082       .  S
C1062      C3195   1.480       .  S
C1063      C3160   1.476       .  S
C1064      C4619   1.493       .  S
C1065      C4392   1.473       .  S
N1076      C1081   1.355       .  A
N1076      C1080   1.351       .  A
N1076      H1108   1.036       .  S
N1077      C1084   1.350       .  A
N1077      C1085   1.353       .  A
N1078      C1083   1.353       .  A
N1078      C1082   1.356       .  A
N1078      H1109   1.036       .  S
N1079      C1086   1.352       .  A
N1079      C1087   1.349       .  A
C1080      C1088   1.389       .  A
C1080      C1096   1.418       .  A
C1081      C1097   1.415       .  A
C1081      C1089   1.385       .  A
C1082      C1090   1.387       .  A
C1082      C1099   1.419       .  A
C1083      C1098   1.418       .  A
C1083      C1091   1.387       .  A
C1084      C1096   1.413       .  A
C1084      C1092   1.386       .  A
C1085      C1099   1.415       .  A
C1085      C1093   1.387       .  A
C1086      C1094   1.385       .  A
C1086      C1097   1.411       .  A
C1087      C1095   1.388       .  A
C1087      C1098   1.412       .  A
C1088      C1089   1.374       .  A
C1088      H1100   1.082       .  S
C1089      H1101   1.082       .  S
C1090      C1091   1.372       .  A
C1090      H1102   1.081       .  S
C1091      H1103   1.082       .  S
C1092      C1093   1.371       .  A
C1092      H1104   1.082       .  S
C1093      H1105   1.081       .  S
C1094      C1095   1.372       .  A
C1094      H1106   1.082       .  S
C1095      H1107   1.082       .  S
C1096      C3179   1.472       .  S
C1097      C3243   1.482       .  S
C1098      C3611   1.476       .  S
C1099      C5131   1.486       .  S
N1110      C1115   1.351       .  A
N1110      C1114   1.354       .  A
N1110      H1142   1.033       .  S
N1111      C1118   1.353       .  A
N1111      C1119   1.350       .  A
N1112      C1117   1.356       .  A
N1112      C1116   1.354       .  A
N1112      H1143   1.034       .  S
N1113      C1120   1.352       .  A
N1113      C1121   1.354       .  A
C1114      C1122   1.387       .  A
C1114      C1130   1.415       .  A
C1115      C1131   1.417       .  A
C1115      C1123   1.389       .  A
C1116      C1124   1.388       .  A
C1116      C1133   1.421       .  A
C1117      C1132   1.420       .  A
C1117      C1125   1.387       .  A
C1118      C1130   1.413       .  A
C1118      C1126   1.384       .  A
C1119      C1133   1.418       .  A
C1119      C1127   1.389       .  A
C1120      C1128   1.387       .  A
C1120      C1131   1.416       .  A
C1121      C1129   1.386       .  A
C1121      C1132   1.416       .  A
C1122      C1123   1.373       .  A
C1122      H1134   1.082       .  S
C1123      H1135   1.082       .  S
C1124      C1125   1.373       .  A
C1124      H1136   1.082       .  S
C1125      H1137   1.081       .  S
C1126      C1127   1.373       .  A
C1126      H1138   1.082       .  S
C1127      H1139   1.082       .  S
C1128      C1129   1.373       .  A
C1128      H1140   1.082       .  S
C1129      H1141   1.082       .  S
C1130      C3227   1.482       .  S
C1131      C3275   1.475       .  S
C1132      C3144   1.488       .  S
C1133      C4475   1.482       .  S
N1144      C1149   1.351       .  A
N1144      C1148   1.353       .  A
N1144      H1176   1.037       .  S
N1145      C1152   1.353       .  A
N1145      C1153   1.351       .  A
N1146      C1151   1.355       .  A
N1146      C1150   1.354       .  A
N1146      H1177   1.040       .  S
N1147      C1154   1.352       .  A
N1147      C1155   1.352       .  A
C1148      C1156   1.388       .  A
C1148      C1164   1.415       .  A
C1149      C1165   1.411       .  A
C1149      C1157   1.387       .  A
C1150      C1158   1.387       .  A
C1150      C1167   1.417       .  A
C1151      C1166   1.417       .  A
C1151      C1159   1.386       .  A
C1152      C1164   1.412       .  A
C1152      C1160   1.384       .  A
C1153      C1167   1.417       .  A
C1153      C1161   1.388       .  A
C1154      C1162   1.385       .  A
C1154      C1165   1.410       .  A
C1155      C1163   1.387       .  A
C1155      C1166   1.414       .  A
C1156      C1157   1.375       .  A
C1156      H1168   1.082       .  S
C1157      H1169   1.082       .  S
C1158      C1159   1.378       .  A
C1158      H1170   1.082       .  S
C1159      H1171   1.082       .  S
C1160      C1161   1.375       .  A
C1160      H1172   1.082       .  S
C1161      H1173   1.082       .  S
C1162      C1163   1.372       .  A
C1162      H1174   1.082       .  S
C1163      H1175   1.082       .  S
C1164      C3323   1.484       .  S
C1165      C3256   1.475       .  S
C1166      C4299   1.490       .  S
C1167      C4056   1.486       .  S
N1178      C1183   1.355       .  A
N1178      C1182   1.353       .  A
N1178      H1210   1.035       .  S
N1179      C1186   1.351       .  A
N1179      C1187   1.353       .  A
N1180      C1185   1.353       .  A
N1180      C1184   1.355       .  A
N1180      H1211   1.037       .  S
N1181      C1188   1.353       .  A
N1181      C1189   1.351       .  A
C1182      C1190   1.388       .  A
C1182      C1198   1.418       .  A
C1183      C1199   1.418       .  A
C1183      C1191   1.387       .  A
C1184      C1192   1.387       .  A
C1184      C1201   1.415       .  A
C1185      C1200   1.415       .  A
C1185      C1193   1.387       .  A
C1186      C1198   1.415       .  A
C1186      C1194   1.388       .  A
C1187      C1201   1.413       .  A
C1187      C1195   1.386       .  A
C1188      C1196   1.386       .  A
C1188      C1199   1.415       .  A
C1189      C1197   1.387       .  A
C1189      C1200   1.414       .  A
C1190      C1191   1.376       .  A
C1190      H1202   1.082       .  S
C1191      H1203   1.082       .  S
C1192      C1193   1.375       .  A
C1192      H1204   1.082       .  S
C1193      H1205   1.082       .  S
C1194      C1195   1.374       .  A
C1194      H1206   1.082       .  S
C1195      H1207   1.082       .  S
C1196      C1197   1.375       .  A
C1196      H1208   1.082       .  S
C1197      H1209   1.082       .  S
C1198      C3208   1.479       .  S
C1199      C3336   1.484       .  S
C1200      C3691   1.478       .  S
C1201      C3976   1.485       .  S
O1212      C1228   1.274       .  A
O1212     Zn1218   2.011       .  S
C1213      O1229   1.275       .  A
C1213      O1226   1.276       .  A
C1213      C3128   1.476       .  S
O1214      C1227   1.276       .  A
O1214     Cd1221   2.091       .  S
O1215      C1233   1.272       .  A
O1215     Cd1224   2.047       .  S
O1216      C1230   1.273       .  A
O1216     Cd1220   2.054       .  S
O1217      C1228   1.273       .  A
O1217     Cd1220   2.062       .  S
Zn1218     O1229   2.028       .  S
Zn1218     O1231   2.002       .  S
Zn1218     O1223   1.939       .  S
O1219      C1230   1.277       .  A
O1219     Cd1224   2.093       .  S
Cd1220     O1222   2.047       .  S
Cd1220     O1223   1.985       .  S
Cd1221     O1225   2.108       .  S
Cd1221     O1234   2.094       .  S
Cd1221     O1223   2.025       .  S
O1222      C1232   1.271       .  A
O1223     Cd1224   1.994       .  S
Cd1224     O1226   2.072       .  S
O1225      C1232   1.278       .  A
C1227      O1231   1.273       .  A
C1227      C3096   1.469       .  S
C1228      C3112   1.469       .  S
C1230      C3147   1.477       .  S
C1232      C3371   1.473       .  S
C1233      O1234   1.277       .  A
C1233      C4763   1.468       .  S
O1235      C1251   1.274       .  A
O1235     Zn1241   2.023       .  S
C1236      O1252   1.273       .  A
C1236      O1249   1.273       .  A
C1236      C4795   1.470       .  S
O1237      C1250   1.276       .  A
O1237     Cd1244   2.093   1_655  S
O1238      C1256   1.272       .  A
O1238     Cd1247   2.046       .  S
O1239      C1253   1.275       .  A
O1239     Cd1243   2.076   1_565  S
O1240      C1251   1.274       .  A
O1240     Cd1243   2.065   1_655  S
Zn1241     O1252   2.014   1_545  S
Zn1241     O1254   2.004       .  S
Zn1241     O1246   1.937   1_545  S
O1242      C1253   1.273       .  A
O1242     Cd1247   2.068       .  S
Cd1243     O1245   2.044       .  S
Cd1243     O1246   1.987   1_445  S
Cd1244     O1248   2.097       .  S
Cd1244     O1257   2.104       .  S
Cd1244     O1246   2.030   1_445  S
O1245      C1255   1.273       .  A
O1246     Cd1247   1.990   1_655  S
Cd1247     O1249   2.059   1_455  S
O1248      C1255   1.277       .  A
C1250      O1254   1.273       .  A
C1250      C3051   1.473       .  S
C1251      C3083   1.472       .  S
C1253      C3720   1.474       .  S
C1255      C3032   1.467       .  S
C1256      O1257   1.279   1_565  A
C1256      C3067   1.464       .  S
C1258      C3003   1.472       .  S
C1258      N1259   1.353       .  A
C1258      N1263   1.356       .  A
N1259      C1260   1.356       .  A
C1260      C2987   1.477       .  S
C1260      N1261   1.365       .  A
N1261      C1262   1.366       .  A
C1262      C3019   1.481       .  S
C1262      N1263   1.359       .  A
C1264      C2968   1.478       .  S
C1264      N1265   1.358       .  A
C1264      N1269   1.360       .  A
N1265      C1266   1.358       .  A
C1266      C2939   1.477       .  S
C1266      N1267   1.359       .  A
N1267      C1268   1.360       .  A
C1268      C2955   1.476       .  S
C1268      N1269   1.361       .  A
C1270      C2920   1.475       .  S
C1270      N1271   1.360       .  A
C1270      N1275   1.361       .  A
N1271      C1272   1.358       .  A
C1272      C2904   1.475       .  S
C1272      N1273   1.357       .  A
N1273      C1274   1.358       .  A
C1274      C2891   1.475       .  S
C1274      N1275   1.360       .  A
N1276      C1281   1.354       .  A
N1276      C1280   1.354       .  A
N1276      H1308   1.036       .  S
N1277      C1284   1.352       .  A
N1277      C1285   1.352       .  A
N1278      C1283   1.354       .  A
N1278      C1282   1.354       .  A
N1278      H1309   1.035       .  S
N1279      C1286   1.352       .  A
N1279      C1287   1.353       .  A
C1280      C1288   1.387       .  A
C1280      C1296   1.415       .  A
C1281      C1297   1.417       .  A
C1281      C1289   1.388       .  A
C1282      C1290   1.386       .  A
C1282      C1299   1.415       .  A
C1283      C1298   1.418       .  A
C1283      C1291   1.389       .  A
C1284      C1296   1.412       .  A
C1284      C1292   1.386       .  A
C1285      C1299   1.413       .  A
C1285      C1293   1.386       .  A
C1286      C1294   1.386       .  A
C1286      C1297   1.415       .  A
C1287      C1295   1.387       .  A
C1287      C1298   1.417       .  A
C1288      C1289   1.375       .  A
C1288      H1300   1.082       .  S
C1289      H1301   1.082       .  S
C1290      C1291   1.375       .  A
C1290      H1302   1.082       .  S
C1291      H1303   1.081       .  S
C1292      C1293   1.374       .  A
C1292      H1304   1.082       .  S
C1293      H1305   1.082       .  S
C1294      C1295   1.375       .  A
C1294      H1306   1.082       .  S
C1295      H1307   1.082       .  S
C1296      C2907   1.480       .  S
C1297      C2936   1.482       .  S
C1298      C3672   1.483       .  S
C1299      C5115   1.482       .  S
N1310      C1315   1.353       .  A
N1310      C1314   1.353       .  A
N1310      H1342   1.037       .  S
N1311      C1318   1.352       .  A
N1311      C1319   1.352       .  A
N1312      C1317   1.353       .  A
N1312      C1316   1.353       .  A
N1312      H1343   1.039       .  S
N1313      C1320   1.351       .  A
N1313      C1321   1.351       .  A
C1314      C1322   1.387       .  A
C1314      C1330   1.415       .  A
C1315      C1331   1.416       .  A
C1315      C1323   1.388       .  A
C1316      C1324   1.386       .  A
C1316      C1333   1.413       .  A
C1317      C1332   1.414       .  A
C1317      C1325   1.388       .  A
C1318      C1330   1.412       .  A
C1318      C1326   1.386       .  A
C1319      C1333   1.414       .  A
C1319      C1327   1.387       .  A
C1320      C1328   1.386       .  A
C1320      C1331   1.413       .  A
C1321      C1329   1.387       .  A
C1321      C1332   1.414       .  A
C1322      C1323   1.376       .  A
C1322      H1334   1.082       .  S
C1323      H1335   1.082       .  S
C1324      C1325   1.373       .  A
C1324      H1336   1.082       .  S
C1325      H1337   1.081       .  S
C1326      C1327   1.374       .  A
C1326      H1338   1.082       .  S
C1327      H1339   1.082       .  S
C1328      C1329   1.375       .  A
C1328      H1340   1.082       .  S
C1329      H1341   1.082       .  S
C1330      C2984   1.480       .  S
C1331      C2888   1.480       .  S
C1332      C4523   1.479       .  S
C1333      C4219   1.484       .  S
C1344      C2856   1.481       .  S
C1344      N1345   1.359       .  A
C1344      N1349   1.364       .  A
N1345      C1346   1.357       .  A
C1346      C2843   1.478       .  S
C1346      N1347   1.357       .  A
N1347      C1348   1.359       .  A
C1348      C2872   1.477       .  S
C1348      N1349   1.364       .  A
N1350      C1355   1.354       .  A
N1350      C1354   1.351       .  A
N1350      H1382   1.030       .  S
N1351      C1358   1.353       .  A
N1351      C1359   1.353       .  A
N1352      C1357   1.352       .  A
N1352      C1356   1.356       .  A
N1352      H1383   1.034       .  S
N1353      C1360   1.352       .  A
N1353      C1361   1.349       .  A
C1354      C1362   1.388       .  A
C1354      C1370   1.418       .  A
C1355      C1371   1.418       .  A
C1355      C1363   1.388       .  A
C1356      C1364   1.388       .  A
C1356      C1373   1.420       .  A
C1357      C1372   1.417       .  A
C1357      C1365   1.388       .  A
C1358      C1370   1.417       .  A
C1358      C1366   1.386       .  A
C1359      C1373   1.419       .  A
C1359      C1367   1.387       .  A
C1360      C1368   1.386       .  A
C1360      C1371   1.415       .  A
C1361      C1369   1.388       .  A
C1361      C1372   1.414       .  A
C1362      C1363   1.373       .  A
C1362      H1374   1.082       .  S
C1363      H1375   1.082       .  S
C1364      C1365   1.374       .  A
C1364      H1376   1.082       .  S
C1365      H1377   1.082       .  S
C1366      C1367   1.373       .  A
C1366      H1378   1.082       .  S
C1367      H1379   1.082       .  S
C1368      C1369   1.373       .  A
C1368      H1380   1.082       .  S
C1369      H1381   1.082       .  S
C1370      C2923   1.479       .  S
C1371      C2840   1.482       .  S
C1372      C3115   1.472       .  S
C1373      C5259   1.491       .  S
N1384      C1389   1.354       .  A
N1384      C1388   1.353       .  A
N1384      H1416   1.033       .  S
N1385      C1392   1.352       .  A
N1385      C1393   1.352       .  A
N1386      C1391   1.354       .  A
N1386      C1390   1.354       .  A
N1386      H1417   1.036       .  S
N1387      C1394   1.353       .  A
N1387      C1395   1.352       .  A
C1388      C1396   1.388       .  A
C1388      C1404   1.416       .  A
C1389      C1405   1.417       .  A
C1389      C1397   1.388       .  A
C1390      C1398   1.387       .  A
C1390      C1407   1.415       .  A
C1391      C1406   1.418       .  A
C1391      C1399   1.388       .  A
C1392      C1404   1.413       .  A
C1392      C1400   1.386       .  A
C1393      C1407   1.414       .  A
C1393      C1401   1.387       .  A
C1394      C1402   1.385       .  A
C1394      C1405   1.415       .  A
C1395      C1403   1.388       .  A
C1395      C1406   1.418       .  A
C1396      C1397   1.374       .  A
C1396      H1408   1.082       .  S
C1397      H1409   1.082       .  S
C1398      C1399   1.374       .  A
C1398      H1410   1.081       .  S
C1399      H1411   1.082       .  S
C1400      C1401   1.372       .  A
C1400      H1412   1.082       .  S
C1401      H1413   1.082       .  S
C1402      C1403   1.375       .  A
C1402      H1414   1.082       .  S
C1403      H1415   1.082       .  S
C1404      C2952   1.477       .  S
C1405      C3016   1.484       .  S
C1406      C4491   1.486       .  S
C1407      C4139   1.481       .  S
N1418      C1423   1.358       .  A
N1418      C1422   1.355       .  A
N1418      H1450   1.035       .  S
N1419      C1426   1.355       .  A
N1419      C1427   1.355       .  A
N1420      C1425   1.356       .  A
N1420      C1424   1.356       .  A
N1420      H1451   1.036       .  S
N1421      C1428   1.354       .  A
N1421      C1429   1.352       .  A
C1422      C1430   1.388       .  A
C1422      C1438   1.423       .  A
C1423      C1439   1.421       .  A
C1423      C1431   1.387       .  A
C1424      C1432   1.387       .  A
C1424      C1441   1.419       .  A
C1425      C1440   1.420       .  A
C1425      C1433   1.388       .  A
C1426      C1438   1.419       .  A
C1426      C1434   1.386       .  A
C1427      C1441   1.419       .  A
C1427      C1435   1.387       .  A
C1428      C1436   1.385       .  A
C1428      C1439   1.414       .  A
C1429      C1437   1.388       .  A
C1429      C1440   1.418       .  A
C1430      C1431   1.375       .  A
C1430      H1442   1.082       .  S
C1431      H1443   1.082       .  S
C1432      C1433   1.374       .  A
C1432      H1444   1.082       .  S
C1433      H1445   1.082       .  S
C1434      C1435   1.373       .  A
C1434      H1446   1.082       .  S
C1435      H1447   1.082       .  S
C1436      C1437   1.371       .  A
C1436      H1448   1.082       .  S
C1437      H1449   1.082       .  S
C1438      C2875   1.493       .  S
C1439      C2971   1.490       .  S
C1440      C3048   1.491       .  S
C1441      C2824   1.493       .  S
N1452      C1457   1.352       .  A
N1452      C1456   1.353       .  A
N1452      H1484   1.034       .  S
N1453      C1460   1.354       .  A
N1453      C1461   1.352       .  A
N1454      C1459   1.354       .  A
N1454      C1458   1.354       .  A
N1454      H1485   1.038       .  S
N1455      C1462   1.352       .  A
N1455      C1463   1.351       .  A
C1456      C1464   1.388       .  A
C1456      C1472   1.416       .  A
C1457      C1473   1.413       .  A
C1457      C1465   1.386       .  A
C1458      C1466   1.388       .  A
C1458      C1475   1.416       .  A
C1459      C1474   1.413       .  A
C1459      C1467   1.386       .  A
C1460      C1472   1.416       .  A
C1460      C1468   1.385       .  A
C1461      C1475   1.419       .  A
C1461      C1469   1.388       .  A
C1462      C1470   1.385       .  A
C1462      C1473   1.412       .  A
C1463      C1471   1.387       .  A
C1463      C1474   1.412       .  A
C1464      C1465   1.373       .  A
C1464      H1476   1.082       .  S
C1465      H1477   1.082       .  S
C1466      C1467   1.373       .  A
C1466      H1478   1.082       .  S
C1467      H1479   1.082       .  S
C1468      C1469   1.374       .  A
C1468      H1480   1.082       .  S
C1469      H1481   1.082       .  S
C1470      C1471   1.372       .  A
C1470      H1482   1.082       .  S
C1471      H1483   1.082       .  S
C1472      C2859   1.484       .  S
C1473      C3000   1.476       .  S
C1474      C3960   1.480       .  S
C1475      C3592   1.487       .  S
C1486      C2795   1.480       .  S
C1486      N1487   1.361       .  A
C1486      N1491   1.360       .  A
N1487      C1488   1.361       .  A
C1488      C2776   1.477       .  S
C1488      N1489   1.360       .  A
N1489      C1490   1.359       .  A
C1490      C2808   1.478       .  S
C1490      N1491   1.360       .  A
N1492      C1497   1.352       .  A
N1492      C1496   1.353       .  A
N1492      H1524   1.037       .  S
N1493      C1500   1.351       .  A
N1493      C1501   1.350       .  A
N1494      C1499   1.354       .  A
N1494      C1498   1.355       .  A
N1494      H1525   1.038       .  S
N1495      C1502   1.353       .  A
N1495      C1503   1.352       .  A
C1496      C1504   1.388       .  A
C1496      C1512   1.415       .  A
C1497      C1513   1.413       .  A
C1497      C1505   1.386       .  A
C1498      C1506   1.387       .  A
C1498      C1515   1.417       .  A
C1499      C1514   1.416       .  A
C1499      C1507   1.387       .  A
C1500      C1512   1.411       .  A
C1500      C1508   1.386       .  A
C1501      C1515   1.413       .  A
C1501      C1509   1.387       .  A
C1502      C1510   1.385       .  A
C1502      C1513   1.413       .  A
C1503      C1511   1.387       .  A
C1503      C1514   1.416       .  A
C1504      C1505   1.377       .  A
C1504      H1516   1.082       .  S
C1505      H1517   1.082       .  S
C1506      C1507   1.376       .  A
C1506      H1518   1.082       .  S
C1507      H1519   1.082       .  S
C1508      C1509   1.373       .  A
C1508      H1520   1.082       .  S
C1509      H1521   1.082       .  S
C1510      C1511   1.375       .  A
C1510      H1522   1.082       .  S
C1511      H1523   1.082       .  S
C1512      C2760   1.479       .  S
C1513      C2779   1.481       .  S
C1514      C4091   1.487       .  S
C1515      C4667   1.486       .  S
C1526      C2712   1.477       .  S
C1526      N1527   1.357       .  A
C1526      N1531   1.359       .  A
N1527      C1528   1.358       .  A
C1528      C2744   1.476       .  S
C1528      N1529   1.361       .  A
N1529      C1530   1.361       .  A
C1530      C2728   1.479       .  S
C1530      N1531   1.360       .  A
C1532      C2699   1.473       .  S
C1532      N1533   1.357       .  A
C1532      N1537   1.357       .  A
N1533      C1534   1.358       .  A
C1534      C2680   1.476       .  S
C1534      N1535   1.360       .  A
N1535      C1536   1.361       .  A
C1536      C2763   1.474       .  S
C1536      N1537   1.359       .  A
N1538      C1543   1.354       .  A
N1538      C1542   1.352       .  A
N1538      H1570   1.037       .  S
N1539      C1546   1.353       .  A
N1539      C1547   1.352       .  A
N1540      C1545   1.356       .  A
N1540      C1544   1.358       .  A
N1540      H1571   1.038       .  S
N1541      C1548   1.353       .  A
N1541      C1549   1.352       .  A
C1542      C1550   1.387       .  A
C1542      C1558   1.413       .  A
C1543      C1559   1.415       .  A
C1543      C1551   1.387       .  A
C1544      C1552   1.387       .  A
C1544      C1561   1.423       .  A
C1545      C1560   1.420       .  A
C1545      C1553   1.387       .  A
C1546      C1558   1.412       .  A
C1546      C1554   1.385       .  A
C1547      C1561   1.417       .  A
C1547      C1555   1.388       .  A
C1548      C1556   1.385       .  A
C1548      C1559   1.413       .  A
C1549      C1557   1.388       .  A
C1549      C1560   1.418       .  A
C1550      C1551   1.373       .  A
C1550      H1562   1.082       .  S
C1551      H1563   1.082       .  S
C1552      C1553   1.377       .  A
C1552      H1564   1.082       .  S
C1553      H1565   1.082       .  S
C1554      C1555   1.373       .  A
C1554      H1566   1.082       .  S
C1555      H1567   1.082       .  S
C1556      C1557   1.372       .  A
C1556      H1568   1.082       .  S
C1557      H1569   1.082       .  S
C1558      C2715   1.479       .  S
C1559      C2683   1.482       .  S
C1560      C5195   1.488       .  S
C1561      C4427   1.494       .  S
C1572      C2664   1.468       .  S
C1572      N1573   1.360       .  A
C1572      N1577   1.360       .  A
N1573      C1574   1.358       .  A
C1574      C2632   1.470   1_455  S
C1574      N1575   1.355       .  A
N1575      C1576   1.354       .  A
C1576      C2648   1.470       .  S
C1576      N1577   1.357       .  A
N1578      C1583   1.353       .  A
N1578      C1582   1.354       .  A
N1578      H1610   1.036       .  S
N1579      C1586   1.351       .  A
N1579      C1587   1.351       .  A
N1580      C1585   1.352       .  A
N1580      C1584   1.352       .  A
N1580      H1611   1.036       .  S
N1581      C1588   1.351       .  A
N1581      C1589   1.351       .  A
C1582      C1590   1.387       .  A
C1582      C1598   1.415       .  A
C1583      C1599   1.416       .  A
C1583      C1591   1.387       .  A
C1584      C1592   1.387       .  A
C1584      C1601   1.414       .  A
C1585      C1600   1.412       .  A
C1585      C1593   1.387       .  A
C1586      C1598   1.411       .  A
C1586      C1594   1.385       .  A
C1587      C1601   1.416       .  A
C1587      C1595   1.388       .  A
C1588      C1596   1.386       .  A
C1588      C1599   1.412       .  A
C1589      C1597   1.387       .  A
C1589      C1600   1.412       .  A
C1590      C1591   1.374       .  A
C1590      H1602   1.082       .  S
C1591      H1603   1.082       .  S
C1592      C1593   1.372       .  A
C1592      H1604   1.082       .  S
C1593      H1605   1.082       .  S
C1594      C1595   1.370       .  A
C1594      H1606   1.082       .  S
C1595      H1607   1.081       .  S
C1596      C1597   1.372       .  A
C1596      H1608   1.082       .  S
C1597      H1609   1.082       .  S
C1598      C2651   1.477       .  S
C1599      C2696   1.479       .  S
C1600      C4587   1.473       .  S
C1601      C2616   1.483       .  S
N1612      C1617   1.353       .  A
N1612      C1616   1.356       .  A
N1612      H1644   1.034       .  S
N1613      C1620   1.353       .  A
N1613      C1621   1.352       .  A
N1614      C1619   1.354       .  A
N1614      C1618   1.350       .  A
N1614      H1645   1.029       .  S
N1615      C1622   1.350       .  A
N1615      C1623   1.353       .  A
C1616      C1624   1.387       .  A
C1616      C1632   1.418       .  A
C1617      C1633   1.419       .  A
C1617      C1625   1.389       .  A
C1618      C1626   1.389       .  A
C1618      C1635   1.420       .  A
C1619      C1634   1.420       .  A
C1619      C1627   1.388       .  A
C1620      C1632   1.417       .  A
C1620      C1628   1.385       .  A
C1621      C1635   1.420       .  A
C1621      C1629   1.388       .  A
C1622      C1630   1.387       .  A
C1622      C1633   1.415       .  A
C1623      C1631   1.387       .  A
C1623      C1634   1.419       .  A
C1624      C1625   1.374       .  A
C1624      H1636   1.082       .  S
C1625      H1637   1.082       .  S
C1626      C1627   1.373       .  A
C1626      H1638   1.082       .  S
C1627      H1639   1.082       .  S
C1628      C1629   1.374       .  A
C1628      H1640   1.082       .  S
C1629      H1641   1.082       .  S
C1630      C1631   1.373       .  A
C1630      H1642   1.082       .  S
C1631      H1643   1.082       .  S
C1632      C2792   1.487       .  S
C1633      C2635   1.475       .  S
C1634      C3131   1.484       .  S
C1635      C4171   1.477       .  S
N1646      C1651   1.353       .  A
N1646      C1650   1.354       .  A
N1646      H1678   1.034       .  S
N1647      C1654   1.355       .  A
N1647      C1655   1.353       .  A
N1648      C1653   1.356       .  A
N1648      C1652   1.354       .  A
N1648      H1679   1.036       .  S
N1649      C1656   1.353       .  A
N1649      C1657   1.353       .  A
C1650      C1658   1.388       .  A
C1650      C1666   1.418       .  A
C1651      C1667   1.416       .  A
C1651      C1659   1.387       .  A
C1652      C1660   1.387       .  A
C1652      C1669   1.417       .  A
C1653      C1668   1.420       .  A
C1653      C1661   1.387       .  A
C1654      C1666   1.418       .  A
C1654      C1662   1.386       .  A
C1655      C1669   1.419       .  A
C1655      C1663   1.387       .  A
C1656      C1664   1.385       .  A
C1656      C1667   1.415       .  A
C1657      C1665   1.387       .  A
C1657      C1668   1.418       .  A
C1658      C1659   1.373       .  A
C1658      H1670   1.082       .  S
C1659      H1671   1.082       .  S
C1660      C1661   1.376       .  A
C1660      H1672   1.082       .  S
C1661      H1673   1.082       .  S
C1662      C1663   1.375       .  A
C1662      H1674   1.082       .  S
C1663      H1675   1.082       .  S
C1664      C1665   1.373       .  A
C1664      H1676   1.082       .  S
C1665      H1677   1.082       .  S
C1666      C2811   1.485       .  S
C1667      C2747   1.480       .  S
C1668      C4200   1.493       .  S
C1669      C3064   1.484       .  S
N1680      C1685   1.353       .  A
N1680      C1684   1.350       .  A
N1680      H1712   1.033       .  S
N1681      C1688   1.351       .  A
N1681      C1689   1.353       .  A
N1682      C1687   1.350       .  A
N1682      C1686   1.354       .  A
N1682      H1713   1.037       .  S
N1683      C1690   1.353       .  A
N1683      C1691   1.350       .  A
C1684      C1692   1.388       .  A
C1684      C1700   1.414       .  A
C1685      C1701   1.416       .  A
C1685      C1693   1.388       .  A
C1686      C1694   1.387       .  A
C1686      C1703   1.414       .  A
C1687      C1702   1.412       .  A
C1687      C1695   1.388       .  A
C1688      C1700   1.412       .  A
C1688      C1696   1.386       .  A
C1689      C1703   1.414       .  A
C1689      C1697   1.385       .  A
C1690      C1698   1.386       .  A
C1690      C1701   1.415       .  A
C1691      C1699   1.387       .  A
C1691      C1702   1.413       .  A
C1692      C1693   1.376       .  A
C1692      H1704   1.082       .  S
C1693      H1705   1.082       .  S
C1694      C1695   1.372       .  A
C1694      H1706   1.082       .  S
C1695      H1707   1.082       .  S
C1696      C1697   1.372       .  A
C1696      H1708   1.082       .  S
C1697      H1709   1.082       .  S
C1698      C1699   1.374       .  A
C1698      H1710   1.082       .  S
C1699      H1711   1.082       .  S
C1700      C2667   1.472       .  S
C1701      C2731   1.482       .  S
C1702      C4360   1.469       .  S
C1703      C4283   1.488       .  S
C1714      C2568   1.477       .  S
C1714      N1715   1.363       .  A
C1714      N1719   1.360       .  A
N1715      C1716   1.362       .  A
C1716      C2587   1.478       .  S
C1716      N1717   1.358       .  A
N1717      C1718   1.357       .  A
C1718      C2600   1.477       .  S
C1718      N1719   1.358       .  A
N1720      C1725   1.354       .  A
N1720      C1724   1.352       .  A
N1720      H1752   1.036       .  S
N1721      C1728   1.351       .  A
N1721      C1729   1.352       .  A
N1722      C1727   1.352       .  A
N1722      C1726   1.353       .  A
N1722      H1753   1.036       .  S
N1723      C1730   1.353       .  A
N1723      C1731   1.351       .  A
C1724      C1732   1.388       .  A
C1724      C1740   1.416       .  A
C1725      C1741   1.414       .  A
C1725      C1733   1.386       .  A
C1726      C1734   1.387       .  A
C1726      C1743   1.413       .  A
C1727      C1742   1.416       .  A
C1727      C1735   1.388       .  A
C1728      C1740   1.414       .  A
C1728      C1736   1.386       .  A
C1729      C1743   1.414       .  A
C1729      C1737   1.386       .  A
C1730      C1738   1.384       .  A
C1730      C1741   1.411       .  A
C1731      C1739   1.388       .  A
C1731      C1742   1.416       .  A
C1732      C1733   1.374       .  A
C1732      H1744   1.082       .  S
C1733      H1745   1.082       .  S
C1734      C1735   1.374       .  A
C1734      H1746   1.082       .  S
C1735      H1747   1.082       .  S
C1736      C1737   1.375       .  A
C1736      H1748   1.082       .  S
C1737      H1749   1.082       .  S
C1738      C1739   1.373       .  A
C1738      H1750   1.082       .  S
C1739      H1751   1.082       .  S
C1740      C2552   1.478       .  S
C1741      C2584   1.483       .  S
C1742      C5099   1.482       .  S
C1743      C5176   1.479       .  S
C1754      C2555   1.475       .  S
C1754      N1755   1.357       .  A
C1754      N1759   1.359       .  A
N1755      C1756   1.356       .  A
C1756      C2536   1.474       .  S
C1756      N1757   1.359       .  A
N1757      C1758   1.360       .  A
C1758      C2520   1.476       .  S
C1758      N1759   1.362       .  A
C1760      C2472   1.474       .  S
C1760      N1761   1.357       .  A
C1760      N1765   1.359       .  A
N1761      C1762   1.356       .  A
C1762      C2491   1.474       .  S
C1762      N1763   1.360       .  A
N1763      C1764   1.361       .  A
C1764      C2504   1.475       .  S
C1764      N1765   1.361       .  A
C1766      C2456   1.477       .  S
C1766      N1767   1.360       .  A
C1766      N1771   1.365       .  A
N1767      C1768   1.356       .  A
C1768      C2424   1.478       .  S
C1768      N1769   1.355       .  A
N1769      C1770   1.359       .  A
C1770      C2440   1.478       .  S
C1770      N1771   1.363       .  A
N1772      C1777   1.354       .  A
N1772      C1776   1.354       .  A
N1772      H1804   1.036       .  S
N1773      C1780   1.353       .  A
N1773      C1781   1.352       .  A
N1774      C1779   1.354       .  A
N1774      C1778   1.354       .  A
N1774      H1805   1.037       .  S
N1775      C1782   1.353       .  A
N1775      C1783   1.352       .  A
C1776      C1784   1.387       .  A
C1776      C1792   1.417       .  A
C1777      C1793   1.418       .  A
C1777      C1785   1.387       .  A
C1778      C1786   1.387       .  A
C1778      C1795   1.417       .  A
C1779      C1794   1.417       .  A
C1779      C1787   1.387       .  A
C1780      C1792   1.413       .  A
C1780      C1788   1.386       .  A
C1781      C1795   1.415       .  A
C1781      C1789   1.387       .  A
C1782      C1790   1.386       .  A
C1782      C1793   1.415       .  A
C1783      C1791   1.386       .  A
C1783      C1794   1.414       .  A
C1784      C1785   1.376       .  A
C1784      H1796   1.082       .  S
C1785      H1797   1.082       .  S
C1786      C1787   1.376       .  A
C1786      H1798   1.082       .  S
C1787      H1799   1.082       .  S
C1788      C1789   1.373       .  A
C1788      H1800   1.082       .  S
C1789      H1801   1.082       .  S
C1790      C1791   1.373       .  A
C1790      H1802   1.082       .  S
C1791      H1803   1.082       .  S
C1792      C2459   1.481       .  S
C1793      C2507   1.487       .  S
C1794      C4651   1.482       .  S
C1795      C4552   1.483       .  S
N1806      C1811   1.355       .  A
N1806      C1810   1.354       .  A
N1806      H1838   1.035       .  S
N1807      C1814   1.353       .  A
N1807      C1815   1.353       .  A
N1808      C1813   1.353       .  A
N1808      C1812   1.355       .  A
N1808      H1839   1.034       .  S
N1809      C1816   1.353       .  A
N1809      C1817   1.353       .  A
C1810      C1818   1.387       .  A
C1810      C1826   1.417       .  A
C1811      C1827   1.418       .  A
C1811      C1819   1.388       .  A
C1812      C1820   1.387       .  A
C1812      C1829   1.419       .  A
C1813      C1828   1.418       .  A
C1813      C1821   1.388       .  A
C1814      C1826   1.414       .  A
C1814      C1822   1.385       .  A
C1815      C1829   1.419       .  A
C1815      C1823   1.388       .  A
C1816      C1824   1.386       .  A
C1816      C1827   1.416       .  A
C1817      C1825   1.388       .  A
C1817      C1828   1.418       .  A
C1818      C1819   1.375       .  A
C1818      H1830   1.082       .  S
C1819      H1831   1.082       .  S
C1820      C1821   1.374       .  A
C1820      H1832   1.082       .  S
C1821      H1833   1.081       .  S
C1822      C1823   1.372       .  A
C1822      H1834   1.082       .  S
C1823      H1835   1.082       .  S
C1824      C1825   1.375       .  A
C1824      H1836   1.082       .  S
C1825      H1837   1.082       .  S
C1826      C2523   1.481       .  S
C1827      C2427   1.486       .  S
C1828      C2411   1.481       .  S
C1829      C3099   1.489       .  S
N1840      C1845   1.354       .  A
N1840      C1844   1.353       .  A
N1840      H1872   1.030       .  S
N1841      C1848   1.351       .  A
N1841      C1849   1.352       .  A
N1842      C1847   1.352       .  A
N1842      C1846   1.353       .  A
N1842      H1873   1.032       .  S
N1843      C1850   1.352       .  A
N1843      C1851   1.351       .  A
C1844      C1852   1.388       .  A
C1844      C1860   1.421       .  A
C1845      C1861   1.423       .  A
C1845      C1853   1.388       .  A
C1846      C1854   1.388       .  A
C1846      C1863   1.419       .  A
C1847      C1862   1.417       .  A
C1847      C1855   1.388       .  A
C1848      C1860   1.416       .  A
C1848      C1856   1.388       .  A
C1849      C1863   1.415       .  A
C1849      C1857   1.386       .  A
C1850      C1858   1.387       .  A
C1850      C1861   1.417       .  A
C1851      C1859   1.387       .  A
C1851      C1862   1.416       .  A
C1852      C1853   1.377       .  A
C1852      H1864   1.082       .  S
C1853      H1865   1.082       .  S
C1854      C1855   1.372       .  A
C1854      H1866   1.082       .  S
C1855      H1867   1.082       .  S
C1856      C1857   1.372       .  A
C1856      H1868   1.082       .  S
C1857      H1869   1.082       .  S
C1858      C1859   1.373       .  A
C1858      H1870   1.082       .  S
C1859      H1871   1.082       .  S
C1860      C2488   1.477       .  S
C1861      C2603   1.482       .  S
C1862      C3643   1.477       .  S
C1863      C4331   1.481       .  S
N1874      C1879   1.352       .  A
N1874      C1878   1.352       .  A
N1874      H1906   1.033       .  S
N1875      C1882   1.350       .  A
N1875      C1883   1.350       .  A
N1876      C1881   1.353       .  A
N1876      C1880   1.353       .  A
N1876      H1907   1.036       .  S
N1877      C1884   1.352       .  A
N1877      C1885   1.350       .  A
C1878      C1886   1.388       .  A
C1878      C1894   1.416       .  A
C1879      C1895   1.414       .  A
C1879      C1887   1.387       .  A
C1880      C1888   1.387       .  A
C1880      C1897   1.415       .  A
C1881      C1896   1.415       .  A
C1881      C1889   1.387       .  A
C1882      C1894   1.413       .  A
C1882      C1890   1.387       .  A
C1883      C1897   1.411       .  A
C1883      C1891   1.386       .  A
C1884      C1892   1.385       .  A
C1884      C1895   1.412       .  A
C1885      C1893   1.387       .  A
C1885      C1896   1.414       .  A
C1886      C1887   1.374       .  A
C1886      H1898   1.082       .  S
C1887      H1899   1.082       .  S
C1888      C1889   1.374       .  A
C1888      H1900   1.082       .  S
C1889      H1901   1.082       .  S
C1890      C1891   1.374       .  A
C1890      H1902   1.082       .  S
C1891      H1903   1.082       .  S
C1892      C1893   1.372       .  A
C1892      H1904   1.082       .  S
C1893      H1905   1.082       .  S
C1894      C2475   1.474       .  S
C1895      C2539   1.477       .  S
C1896      C4107   1.480       .  S
C1897      C4043   1.476       .  S
N1908      C1913   1.354       .  A
N1908      C1912   1.353       .  A
N1908      H1940   1.037       .  S
N1909      C1916   1.352       .  A
N1909      C1917   1.352       .  A
N1910      C1915   1.351       .  A
N1910      C1914   1.353       .  A
N1910      H1941   1.036       .  S
N1911      C1918   1.351       .  A
N1911      C1919   1.351       .  A
C1912      C1920   1.388       .  A
C1912      C1928   1.415       .  A
C1913      C1929   1.415       .  A
C1913      C1921   1.386       .  A
C1914      C1922   1.388       .  A
C1914      C1931   1.416       .  A
C1915      C1930   1.411       .  A
C1915      C1923   1.386       .  A
C1916      C1928   1.413       .  A
C1916      C1924   1.386       .  A
C1917      C1931   1.416       .  A
C1917      C1925   1.387       .  A
C1918      C1926   1.386       .  A
C1918      C1929   1.411       .  A
C1919      C1927   1.386       .  A
C1919      C1930   1.412       .  A
C1920      C1921   1.376       .  A
C1920      H1932   1.082       .  S
C1921      H1933   1.082       .  S
C1922      C1923   1.373       .  A
C1922      H1934   1.082       .  S
C1923      H1935   1.082       .  S
C1924      C1925   1.374       .  A
C1924      H1936   1.082       .  S
C1925      H1937   1.082       .  S
C1926      C1927   1.373       .  A
C1926      H1938   1.082       .  S
C1927      H1939   1.082       .  S
C1928      C2571   1.480       .  S
C1929      C2443   1.481       .  S
C1930      C3080   1.475       .  S
C1931      C3707   1.484       .  S
O1942      C1958   1.270       .  A
O1942     Zn1948   1.997       .  S
C1943      O1959   1.271       .  A
C1943      O1956   1.274       .  A
C1943      C4699   1.466       .  S
O1944      C1957   1.276       .  A
O1944     Cd1951   2.092       .  S
O1945      C1963   1.273       .  A
O1945     Cd1954   2.054       .  S
O1946      C1960   1.274       .  A
O1946     Cd1950   2.063   1_655  S
O1947      C1958   1.272       .  A
O1947     Cd1950   2.060       .  S
Zn1948     O1959   1.998   1_455  S
Zn1948     O1961   1.965       .  S
Zn1948     O1953   1.923   1_455  S
O1949      C1960   1.276       .  A
O1949     Cd1954   2.075       .  S
Cd1950     O1952   2.033       .  S
Cd1950     O1953   1.978   1_455  S
Cd1951     O1955   2.099       .  S
Cd1951     O1964   2.095   1_455  S
Cd1951     O1953   2.026   1_455  S
O1952      C1962   1.271       .  A
O1953     Cd1954   1.978       .  S
Cd1954     O1956   2.063       .  S
O1955      C1962   1.277       .  A
C1957      O1961   1.269       .  A
C1957      C2392   1.459       .  S
C1958      C3355   1.465       .  S
C1960      C2408   1.472       .  S
C1962      C2619   1.466       .  S
C1963      O1964   1.278       .  A
C1963      C2827   1.470       .  S
C1965      C2363   1.481   1_554  S
C1965      N1966   1.358       .  A
C1965      N1970   1.364       .  A
N1966      C1967   1.356       .  A
C1967      C2379   1.474       .  S
C1967      N1968   1.356       .  A
N1968      C1969   1.359       .  A
C1969      C2344   1.478       .  S
C1969      N1970   1.365       .  A
N1971      C1976   1.352       .  A
N1971      C1975   1.351       .  A
N1971      H2003   1.037       .  S
N1972      C1979   1.353       .  A
N1972      C1980   1.352       .  A
N1973      C1978   1.352       .  A
N1973      C1977   1.354       .  A
N1973      H2004   1.039       .  S
N1974      C1981   1.354       .  A
N1974      C1982   1.350       .  A
C1975      C1983   1.387       .  A
C1975      C1991   1.412       .  A
C1976      C1992   1.413       .  A
C1976      C1984   1.388       .  A
C1977      C1985   1.386       .  A
C1977      C1994   1.414       .  A
C1978      C1993   1.415       .  A
C1978      C1986   1.388       .  A
C1979      C1991   1.413       .  A
C1979      C1987   1.385       .  A
C1980      C1994   1.414       .  A
C1980      C1988   1.386       .  A
C1981      C1989   1.384       .  A
C1981      C1992   1.413       .  A
C1982      C1990   1.388       .  A
C1982      C1993   1.416       .  A
C1983      C1984   1.376       .  A
C1983      H1995   1.082       .  S
C1984      H1996   1.082       .  S
C1985      C1986   1.375       .  A
C1985      H1997   1.082       .  S
C1986      H1998   1.082       .  S
C1987      C1988   1.373       .  A
C1987      H1999   1.082       .  S
C1988      H2000   1.082       .  S
C1989      C1990   1.374       .  A
C1989      H2001   1.082       .  S
C1990      H2002   1.082       .  S
C1991      C2347   1.477       .  S
C1992      C2331   1.482       .  S
C1993      C4600   1.479       .  S
C1994      C4264   1.486       .  S
C2005      C2283   1.481       .  S
C2005      N2006   1.362       .  A
C2005      N2010   1.363       .  A
N2006      C2007   1.361       .  A
C2007      C2296   1.478       .  S
C2007      N2008   1.358       .  A
N2008      C2009   1.357       .  A
C2009      C2315   1.480       .  S
C2009      N2010   1.361       .  A
C2011      C2328   1.481       .  S
C2011      N2012   1.360       .  A
C2011      N2016   1.362       .  A
N2012      C2013   1.360       .  A
C2013      C2251   1.482       .  S
C2013      N2014   1.361       .  A
N2014      C2015   1.362       .  A
C2015      C2264   1.484       .  S
C2015      N2016   1.362       .  A
N2017      C2022   1.355       .  A
N2017      C2021   1.354       .  A
N2017      H2049   1.032       .  S
N2018      C2025   1.354       .  A
N2018      C2026   1.353       .  A
N2019      C2024   1.353       .  A
N2019      C2023   1.353       .  A
N2019      H2050   1.036       .  S
N2020      C2027   1.353       .  A
N2020      C2028   1.351       .  A
C2021      C2029   1.387       .  A
C2021      C2037   1.419       .  A
C2022      C2038   1.419       .  A
C2022      C2030   1.388       .  A
C2023      C2031   1.388       .  A
C2023      C2040   1.416       .  A
C2024      C2039   1.414       .  A
C2024      C2032   1.387       .  A
C2025      C2037   1.418       .  A
C2025      C2033   1.386       .  A
C2026      C2040   1.418       .  A
C2026      C2034   1.387       .  A
C2027      C2035   1.386       .  A
C2027      C2038   1.416       .  A
C2028      C2036   1.387       .  A
C2028      C2039   1.414       .  A
C2029      C2030   1.374       .  A
C2029      H2041   1.082       .  S
C2030      H2042   1.082       .  S
C2031      C2032   1.373       .  A
C2031      H2043   1.082       .  S
C2032      H2044   1.082       .  S
C2033      C2034   1.375       .  A
C2033      H2045   1.082       .  S
C2034      H2046   1.082       .  S
C2035      C2036   1.375       .  A
C2035      H2047   1.082       .  S
C2036      H2048   1.082       .  S
C2037      C2280   1.486       .  S
C2038      C2248   1.484       .  S
C2039      C4507   1.476       .  S
C2040      C3035   1.484       .  S
C2051      C2203   1.473       .  S
C2051      N2052   1.358       .  A
C2051      N2056   1.359       .  A
N2052      C2053   1.358       .  A
C2053      C2216   1.473       .  S
C2053      N2054   1.358       .  A
N2054      C2055   1.358       .  A
C2055      C2235   1.472       .  S
C2055      N2056   1.359       .  A
N2057      C2062   1.354       .  A
N2057      C2061   1.355       .  A
N2057      H2089   1.030       .  S
N2058      C2065   1.353       .  A
N2058      C2066   1.353       .  A
N2059      C2064   1.354       .  A
N2059      C2063   1.354       .  A
N2059      H2090   1.035       .  S
N2060      C2067   1.352       .  A
N2060      C2068   1.352       .  A
C2061      C2069   1.388       .  A
C2061      C2077   1.423       .  A
C2062      C2078   1.422       .  A
C2062      C2070   1.388       .  A
C2063      C2071   1.387       .  A
C2063      C2080   1.416       .  A
C2064      C2079   1.417       .  A
C2064      C2072   1.387       .  A
C2065      C2077   1.420       .  A
C2065      C2073   1.387       .  A
C2066      C2080   1.416       .  A
C2066      C2074   1.386       .  A
C2067      C2075   1.388       .  A
C2067      C2078   1.418       .  A
C2068      C2076   1.386       .  A
C2068      C2079   1.415       .  A
C2069      C2070   1.376       .  A
C2069      H2081   1.082       .  S
C2070      H2082   1.082       .  S
C2071      C2072   1.373       .  A
C2071      H2083   1.082       .  S
C2072      H2084   1.082       .  S
C2073      C2074   1.375       .  A
C2073      H2085   1.082       .  S
C2074      H2086   1.082       .  S
C2075      C2076   1.374       .  A
C2075      H2087   1.082       .  S
C2076      H2088   1.082       .  S
C2077      C2267   1.487       .  S
C2078      C2200   1.482       .  S
C2079      C3944   1.480       .  S
C2080      C5080   1.482       .  S
N2091      C2096   1.354       .  A
N2091      C2095   1.352       .  A
N2091      H2123   1.037       .  S
N2092      C2099   1.351       .  A
N2092      C2100   1.352       .  A
N2093      C2098   1.352       .  A
N2093      C2097   1.355       .  A
N2093      H2124   1.037       .  S
N2094      C2101   1.354       .  A
N2094      C2102   1.352       .  A
C2095      C2103   1.387       .  A
C2095      C2111   1.414       .  A
C2096      C2112   1.414       .  A
C2096      C2104   1.386       .  A
C2097      C2105   1.386       .  A
C2097      C2114   1.414       .  A
C2098      C2113   1.416       .  A
C2098      C2106   1.389       .  A
C2099      C2111   1.411       .  A
C2099      C2107   1.385       .  A
C2100      C2114   1.415       .  A
C2100      C2108   1.387       .  A
C2101      C2109   1.384       .  A
C2101      C2112   1.414       .  A
C2102      C2110   1.388       .  A
C2102      C2113   1.418       .  A
C2103      C2104   1.374       .  A
C2103      H2115   1.082       .  S
C2104      H2116   1.082       .  S
C2105      C2106   1.374       .  A
C2105      H2117   1.082       .  S
C2106      H2118   1.082       .  S
C2107      C2108   1.372       .  A
C2107      H2119   1.082       .  S
C2108      H2120   1.082       .  S
C2109      C2110   1.374       .  A
C2109      H2121   1.082       .  S
C2110      H2122   1.082       .  S
C2111      C2232   1.477       .  S
C2112      C2360   1.485       .  S
C2113      C2395   1.481       .  S
C2114      C4187   1.485       .  S
N2125      C2130   1.353       .  A
N2125      C2129   1.353       .  A
N2125      H2157   1.036       .  S
N2126      C2133   1.351       .  A
N2126      C2134   1.350       .  A
N2127      C2132   1.353       .  A
N2127      C2131   1.354       .  A
N2127      H2158   1.038       .  S
N2128      C2135   1.353       .  A
N2128      C2136   1.352       .  A
C2129      C2137   1.388       .  A
C2129      C2145   1.417       .  A
C2130      C2146   1.415       .  A
C2130      C2138   1.387       .  A
C2131      C2139   1.386       .  A
C2131      C2148   1.413       .  A
C2132      C2147   1.415       .  A
C2132      C2140   1.387       .  A
C2133      C2145   1.413       .  A
C2133      C2141   1.387       .  A
C2134      C2148   1.411       .  A
C2134      C2142   1.386       .  A
C2135      C2143   1.385       .  A
C2135      C2146   1.414       .  A
C2136      C2144   1.387       .  A
C2136      C2147   1.416       .  A
C2137      C2138   1.372       .  A
C2137      H2149   1.081       .  S
C2138      H2150   1.082       .  S
C2139      C2140   1.373       .  A
C2139      H2151   1.082       .  S
C2140      H2152   1.082       .  S
C2141      C2142   1.375       .  A
C2141      H2153   1.082       .  S
C2142      H2154   1.082       .  S
C2143      C2144   1.375       .  A
C2143      H2155   1.082       .  S
C2144      H2156   1.082       .  S
C2145      C2219   1.477       .  S
C2146      C2312   1.482       .  S
C2147      C4024   1.484       .  S
C2148      C4347   1.477       .  S
N2159      C2164   1.353       .  A
N2159      C2163   1.354       .  A
N2159      H2191   1.031       .  S
N2160      C2167   1.354       .  A
N2160      C2168   1.352       .  A
N2161      C2166   1.355       .  A
N2161      C2165   1.356       .  A
N2161      H2192   1.035       .  S
N2162      C2169   1.352       .  A
N2162      C2170   1.352       .  A
C2163      C2171   1.388       .  A
C2163      C2179   1.419       .  A
C2164      C2180   1.419       .  A
C2164      C2172   1.388       .  A
C2165      C2173   1.388       .  A
C2165      C2182   1.421       .  A
C2166      C2181   1.417       .  A
C2166      C2174   1.386       .  A
C2167      C2179   1.417       .  A
C2167      C2175   1.386       .  A
C2168      C2182   1.420       .  A
C2168      C2176   1.388       .  A
C2169      C2177   1.387       .  A
C2169      C2180   1.417       .  A
C2170      C2178   1.387       .  A
C2170      C2181   1.415       .  A
C2171      C2172   1.374       .  A
C2171      H2183   1.082       .  S
C2172      H2184   1.082       .  S
C2173      C2174   1.372       .  A
C2173      H2185   1.081       .  S
C2174      H2186   1.081       .  S
C2175      C2176   1.375       .  A
C2175      H2187   1.082       .  S
C2176      H2188   1.082       .  S
C2177      C2178   1.374       .  A
C2177      H2189   1.082       .  S
C2178      H2190   1.082       .  S
C2179      C2376   1.484       .  S
C2180      C2299   1.480       .  S
C2181      C3659   1.483       .  S
C2182      C3576   1.489       .  S
C2193      C2198   1.388       .  A
C2193      C2194   1.401       .  A
C2193      S2199   1.709       .  A
C2194      C2195   1.403       .  A
C2194      H2205   1.083       .  S
C2195      C2204   1.369       .  A
C2195      C2196   1.387       .  A
C2196      C2197   1.401       .  A
C2196      S2202   1.708       .  A
C2197      C2198   1.403       .  A
C2197      H2206   1.083       .  S
C2198      C2201   1.370       .  A
S2199      C2200   1.722       .  A
C2200      C2201   1.385       .  A
C2201      H2207   1.083       .  S
S2202      C2203   1.724       .  A
C2203      C2204   1.387       .  A
C2204      H2208   1.083       .  S
C2209      C2214   1.387       .  A
C2209      C2210   1.400       .  A
C2209      S2215   1.705       .  A
C2210      C2211   1.401       .  A
C2210      H2221   1.083       .  S
C2211      C2220   1.368       .  A
C2211      C2212   1.388       .  A
C2212      C2213   1.402       .  A
C2212      S2218   1.708       .  A
C2213      C2214   1.403       .  A
C2213      H2222   1.083       .  S
C2214      C2217   1.370       .  A
S2215      C2216   1.723   1_565  A
C2216      C2217   1.388   1_545  A
C2217      H2223   1.083   1_565  S
S2218      C2219   1.720       .  A
C2219      C2220   1.384       .  A
C2220      H2224   1.083       .  S
C2225      C2230   1.388       .  A
C2225      C2226   1.402       .  A
C2225      S2231   1.708       .  A
C2226      C2227   1.403       .  A
C2226      H2237   1.083       .  S
C2227      C2236   1.371       .  A
C2227      C2228   1.387       .  A
C2228      C2229   1.401       .  A
C2228      S2234   1.706       .  A
C2229      C2230   1.401       .  A
C2229      H2238   1.083       .  S
C2230      C2233   1.369       .  A
S2231      C2232   1.720       .  A
C2232      C2233   1.383       .  A
C2233      H2239   1.083       .  S
S2234      C2235   1.723   1_556  A
C2235      C2236   1.387   1_554  A
C2236      H2240   1.083       .  S
C2241      C2246   1.387       .  A
C2241      C2242   1.403       .  A
C2241      S2247   1.709       .  A
C2242      C2243   1.404       .  A
C2242      H2253   1.083       .  S
C2243      C2252   1.374       .  A
C2243      C2244   1.386       .  A
C2244      C2245   1.405       .  A
C2244      S2250   1.711       .  A
C2245      C2246   1.405       .  A
C2245      H2254   1.083       .  S
C2246      C2249   1.375       .  A
S2247      C2248   1.721       .  A
C2248      C2249   1.388       .  A
C2249      H2255   1.083       .  S
S2250      C2251   1.726       .  A
C2251      C2252   1.390       .  A
C2252      H2256   1.083       .  S
C2257      C2262   1.386       .  A
C2257      C2258   1.404       .  A
C2257      S2263   1.710       .  A
C2258      C2259   1.404       .  A
C2258      H2269   1.083       .  S
C2259      C2268   1.374       .  A
C2259      C2260   1.387       .  A
C2260      C2261   1.406       .  A
C2260      S2266   1.713       .  A
C2261      C2262   1.406       .  A
C2261      H2270   1.083       .  S
C2262      C2265   1.376       .  A
S2263      C2264   1.725       .  A
C2264      C2265   1.391       .  A
C2265      H2271   1.083       .  S
S2266      C2267   1.723       .  A
C2267      C2268   1.386       .  A
C2268      H2272   1.083       .  S
C2273      C2278   1.387       .  A
C2273      C2274   1.405       .  A
C2273      S2279   1.711       .  A
C2274      C2275   1.406       .  A
C2274      H2285   1.083       .  S
C2275      C2284   1.375       .  A
C2275      C2276   1.386       .  A
C2276      C2277   1.404       .  A
C2276      S2282   1.710       .  A
C2277      C2278   1.404       .  A
C2277      H2286   1.083       .  S
C2278      C2281   1.374       .  A
S2279      C2280   1.723       .  A
C2280      C2281   1.386       .  A
C2281      H2287   1.083       .  S
S2282      C2283   1.725       .  A
C2283      C2284   1.390       .  A
C2284      H2288   1.083       .  S
C2289      C2294   1.387       .  A
C2289      C2290   1.400       .  A
C2289      S2295   1.705       .  A
C2290      C2291   1.400       .  A
C2290      H2301   1.083       .  S
C2291      C2300   1.369       .  A
C2291      C2292   1.388       .  A
C2292      C2293   1.405       .  A
C2292      S2298   1.711       .  A
C2293      C2294   1.406       .  A
C2293      H2302   1.083       .  S
C2294      C2297   1.375       .  A
S2295      C2296   1.724   1_655  A
C2296      C2297   1.390   1_455  A
C2297      H2303   1.083       .  S
S2298      C2299   1.722       .  A
C2299      C2300   1.382       .  A
C2300      H2304   1.083       .  S
C2305      C2310   1.387       .  A
C2305      C2306   1.404       .  A
C2305      S2311   1.710       .  A
C2306      C2307   1.404       .  A
C2306      H2317   1.083       .  S
C2307      C2316   1.375   1_565  A
C2307      C2308   1.387       .  A
C2308      C2309   1.403       .  A
C2308      S2314   1.707   1_565  A
C2309      C2310   1.403       .  A
C2309      H2318   1.083       .  S
C2310      C2313   1.372       .  A
S2311      C2312   1.721       .  A
C2312      C2313   1.386       .  A
C2313      H2319   1.083       .  S
S2314      C2315   1.726       .  A
C2315      C2316   1.389       .  A
C2316      H2320   1.083       .  S
C2321      C2326   1.386       .  A
C2321      C2322   1.404       .  A
C2321      S2327   1.709       .  A
C2322      C2323   1.404       .  A
C2322      H2333   1.083       .  S
C2323      C2332   1.373       .  A
C2323      C2324   1.387       .  A
C2324      C2325   1.404       .  A
C2324      S2330   1.710       .  A
C2325      C2326   1.405       .  A
C2325      H2334   1.083       .  S
C2326      C2329   1.375       .  A
S2327      C2328   1.726       .  A
C2328      C2329   1.389       .  A
C2329      H2335   1.083       .  S
S2330      C2331   1.721       .  A
C2331      C2332   1.386       .  A
C2332      H2336   1.083       .  S
C2337      C2342   1.387       .  A
C2337      C2338   1.403       .  A
C2337      S2343   1.706       .  A
C2338      C2339   1.403       .  A
C2338      H2349   1.083       .  S
C2339      C2348   1.371       .  A
C2339      C2340   1.388       .  A
C2340      C2341   1.402       .  A
C2340      S2346   1.707       .  A
C2341      C2342   1.402       .  A
C2341      H2350   1.083       .  S
C2342      C2345   1.373       .  A
S2343      C2344   1.727       .  A
C2344      C2345   1.387       .  A
C2345      H2351   1.083       .  S
S2346      C2347   1.719       .  A
C2347      C2348   1.385       .  A
C2348      H2352   1.083       .  S
C2353      C2358   1.387       .  A
C2353      C2354   1.405       .  A
C2353      S2359   1.711       .  A
C2354      C2355   1.405       .  A
C2354      H2365   1.083       .  S
C2355      C2364   1.377       .  A
C2355      C2356   1.387       .  A
C2356      C2357   1.404       .  A
C2356      S2362   1.706       .  A
C2357      C2358   1.404       .  A
C2357      H2366   1.083       .  S
C2358      C2361   1.374       .  A
S2359      C2360   1.722       .  A
C2360      C2361   1.386       .  A
C2361      H2367   1.083       .  S
S2362      C2363   1.727       .  A
C2363      C2364   1.389       .  A
C2364      H2368   1.083       .  S
C2369      C2374   1.387       .  A
C2369      C2370   1.404       .  A
C2369      S2375   1.709       .  A
C2370      C2371   1.404       .  A
C2370      H2381   1.083       .  S
C2371      C2380   1.372       .  A
C2371      C2372   1.387       .  A
C2372      C2373   1.401       .  A
C2372      S2378   1.706       .  A
C2373      C2374   1.402       .  A
C2373      H2382   1.083       .  S
C2374      C2377   1.372       .  A
S2375      C2376   1.723       .  A
C2376      C2377   1.385       .  A
C2377      H2383   1.083       .  S
S2378      C2379   1.723   1_655  A
C2379      C2380   1.388   1_455  A
C2380      H2384   1.083       .  S
C2385      C2390   1.387       .  A
C2385      C2386   1.401       .  A
C2385      S2391   1.712       .  A
C2386      C2387   1.404       .  A
C2386      H2397   1.083       .  S
C2387      C2396   1.367       .  A
C2387      C2388   1.387       .  A
C2388      C2389   1.395       .  A
C2388      S2394   1.704       .  A
C2389      C2390   1.398       .  A
C2389      H2398   1.083       .  S
C2390      C2393   1.360       .  A
S2391      C2392   1.720       .  A
C2392      C2393   1.382       .  A
C2393      H2399   1.084       .  S
S2394      C2395   1.721       .  A
C2395      C2396   1.387       .  A
C2396      H2400   1.083       .  S
C2401      C2406   1.387       .  A
C2401      C2402   1.400       .  A
C2401      S2407   1.706       .  A
C2402      C2403   1.401       .  A
C2402      H2413   1.083       .  S
C2403      C2412   1.369       .  A
C2403      C2404   1.387       .  A
C2404      C2405   1.403       .  A
C2404      S2410   1.709       .  A
C2405      C2406   1.404       .  A
C2405      H2414   1.083       .  S
C2406      C2409   1.371       .  A
S2407      C2408   1.722       .  A
C2408      C2409   1.389       .  A
C2409      H2415   1.083       .  S
S2410      C2411   1.723       .  A
C2411      C2412   1.384       .  A
C2412      H2416   1.083       .  S
C2417      C2422   1.387       .  A
C2417      C2418   1.404       .  A
C2417      S2423   1.709       .  A
C2418      C2419   1.405       .  A
C2418      H2429   1.083       .  S
C2419      C2428   1.374       .  A
C2419      C2420   1.387       .  A
C2420      C2421   1.403       .  A
C2420      S2426   1.710       .  A
C2421      C2422   1.404       .  A
C2421      H2430   1.083       .  S
C2422      C2425   1.374       .  A
S2423      C2424   1.725       .  A
C2424      C2425   1.388       .  A
C2425      H2431   1.083       .  S
S2426      C2427   1.722       .  A
C2427      C2428   1.387       .  A
C2428      H2432   1.083       .  S
C2433      C2438   1.387       .  A
C2433      C2434   1.398       .  A
C2433      S2439   1.698       .  A
C2434      C2435   1.397       .  A
C2434      H2445   1.083       .  S
C2435      C2444   1.368       .  A
C2435      C2436   1.387       .  A
C2436      C2437   1.408       .  A
C2436      S2442   1.713       .  A
C2437      C2438   1.408       .  A
C2437      H2446   1.083       .  S
C2438      C2441   1.380       .  A
S2439      C2440   1.722       .  A
C2440      C2441   1.392       .  A
C2441      H2447   1.083       .  S
S2442      C2443   1.725       .  A
C2443      C2444   1.381       .  A
C2444      H2448   1.083       .  S
C2449      C2454   1.387       .  A
C2449      C2450   1.400       .  A
C2449      S2455   1.703       .  A
C2450      C2451   1.400       .  A
C2450      H2461   1.083       .  S
C2451      C2460   1.370       .  A
C2451      C2452   1.387       .  A
C2452      C2453   1.405       .  A
C2452      S2458   1.711       .  A
C2453      C2454   1.405       .  A
C2453      H2462   1.083       .  S
C2454      C2457   1.376       .  A
S2455      C2456   1.724   1_455  A
C2456      C2457   1.389   1_655  A
C2457      H2463   1.083       .  S
S2458      C2459   1.723       .  A
C2459      C2460   1.383       .  A
C2460      H2464   1.083       .  S
C2465      C2470   1.387       .  A
C2465      C2466   1.402       .  A
C2465      S2471   1.709       .  A
C2466      C2467   1.403       .  A
C2466      H2477   1.083       .  S
C2467      C2476   1.368       .  A
C2467      C2468   1.388       .  A
C2468      C2469   1.399       .  A
C2468      S2474   1.707       .  A
C2469      C2470   1.401       .  A
C2469      H2478   1.083       .  S
C2470      C2473   1.367       .  A
S2471      C2472   1.724       .  A
C2472      C2473   1.387       .  A
C2473      H2479   1.083       .  S
S2474      C2475   1.719       .  A
C2475      C2476   1.383       .  A
C2476      H2480   1.083       .  S
C2481      C2486   1.388       .  A
C2481      C2482   1.402       .  A
C2481      S2487   1.708       .  A
C2482      C2483   1.403       .  A
C2482      H2493   1.083       .  S
C2483      C2492   1.372       .  A
C2483      C2484   1.387       .  A
C2484      C2485   1.401       .  A
C2484      S2490   1.705       .  A
C2485      C2486   1.401       .  A
C2485      H2494   1.083       .  S
C2486      C2489   1.369       .  A
S2487      C2488   1.720       .  A
C2488      C2489   1.383       .  A
C2489      H2495   1.083       .  S
S2490      C2491   1.724       .  A
C2491      C2492   1.387       .  A
C2492      H2496   1.083       .  S
C2497      C2502   1.387       .  A
C2497      C2498   1.402       .  A
C2497      S2503   1.708   1_455  A
C2498      C2499   1.403       .  A
C2498      H2509   1.083       .  S
C2499      C2508   1.371       .  A
C2499      C2500   1.387       .  A
C2500      C2501   1.405       .  A
C2500      S2506   1.712       .  A
C2501      C2502   1.406       .  A
C2501      H2510   1.083       .  S
C2502      C2505   1.374       .  A
S2503      C2504   1.723       .  A
C2504      C2505   1.388   1_655  A
C2505      H2511   1.083       .  S
S2506      C2507   1.725       .  A
C2507      C2508   1.385       .  A
C2508      H2512   1.083       .  S
C2513      C2518   1.386       .  A
C2513      C2514   1.405       .  A
C2513      S2519   1.710       .  A
C2514      C2515   1.405       .  A
C2514      H2525   1.083       .  S
C2515      C2524   1.374       .  A
C2515      C2516   1.388       .  A
C2516      C2517   1.400       .  A
C2516      S2522   1.707       .  A
C2517      C2518   1.401       .  A
C2517      H2526   1.083       .  S
C2518      C2521   1.370       .  A
S2519      C2520   1.726       .  A
C2520      C2521   1.386       .  A
C2521      H2527   1.083       .  S
S2522      C2523   1.719       .  A
C2523      C2524   1.387       .  A
C2524      H2528   1.083       .  S
C2529      C2534   1.387       .  A
C2529      C2530   1.401       .  A
C2529      S2535   1.705       .  A
C2530      C2531   1.401       .  A
C2530      H2541   1.083       .  S
C2531      C2540   1.370       .  A
C2531      C2532   1.388       .  A
C2532      C2533   1.402       .  A
C2532      S2538   1.707       .  A
C2533      C2534   1.403       .  A
C2533      H2542   1.083       .  S
C2534      C2537   1.371       .  A
S2535      C2536   1.724       .  A
C2536      C2537   1.387       .  A
C2537      H2543   1.083       .  S
S2538      C2539   1.720       .  A
C2539      C2540   1.383       .  A
C2540      H2544   1.083       .  S
C2545      C2550   1.388       .  A
C2545      C2546   1.404       .  A
C2545      S2551   1.710       .  A
C2546      C2547   1.405       .  A
C2546      H2557   1.083       .  S
C2547      C2556   1.374       .  A
C2547      C2548   1.387       .  A
C2548      C2549   1.399       .  A
C2548      S2554   1.703       .  A
C2549      C2550   1.399       .  A
C2549      H2558   1.083       .  S
C2550      C2553   1.368       .  A
S2551      C2552   1.722       .  A
C2552      C2553   1.382       .  A
C2553      H2559   1.083       .  S
S2554      C2555   1.723       .  A
C2555      C2556   1.389       .  A
C2556      H2560   1.083       .  S
C2561      C2566   1.387       .  A
C2561      C2562   1.401       .  A
C2561      S2567   1.705       .  A
C2562      C2563   1.401       .  A
C2562      H2573   1.083       .  S
C2563      C2572   1.370       .  A
C2563      C2564   1.387       .  A
C2564      C2565   1.404       .  A
C2564      S2570   1.710       .  A
C2565      C2566   1.405       .  A
C2565      H2574   1.083       .  S
C2566      C2569   1.374       .  A
S2567      C2568   1.724       .  A
C2568      C2569   1.389       .  A
C2569      H2575   1.083       .  S
S2570      C2571   1.722       .  A
C2571      C2572   1.383       .  A
C2572      H2576   1.083       .  S
C2577      C2582   1.387       .  A
C2577      C2578   1.404       .  A
C2577      S2583   1.711       .  A
C2578      C2579   1.405       .  A
C2578      H2589   1.083       .  S
C2579      C2588   1.376       .  A
C2579      C2580   1.387       .  A
C2580      C2581   1.402       .  A
C2580      S2586   1.705       .  A
C2581      C2582   1.402       .  A
C2581      H2590   1.083       .  S
C2582      C2585   1.372       .  A
S2583      C2584   1.722       .  A
C2584      C2585   1.385       .  A
C2585      H2591   1.083       .  S
S2586      C2587   1.725       .  A
C2587      C2588   1.389       .  A
C2588      H2592   1.083       .  S
C2593      C2598   1.387       .  A
C2593      C2594   1.401       .  A
C2593      S2599   1.706       .  A
C2594      C2595   1.401       .  A
C2594      H2605   1.083       .  S
C2595      C2604   1.370       .  A
C2595      C2596   1.388       .  A
C2596      C2597   1.404       .  A
C2596      S2602   1.710       .  A
C2597      C2598   1.404       .  A
C2597      H2606   1.083       .  S
C2598      C2601   1.373       .  A
S2599      C2600   1.724       .  A
C2600      C2601   1.389       .  A
C2601      H2607   1.083       .  S
S2602      C2603   1.723       .  A
C2603      C2604   1.384       .  A
C2604      H2608   1.083       .  S
C2609      C2614   1.387       .  A
C2609      C2610   1.393       .  A
C2609      S2615   1.700       .  A
C2610      C2611   1.396       .  A
C2610      H2621   1.083       .  S
C2611      C2620   1.359       .  A
C2611      C2612   1.386       .  A
C2612      C2613   1.405       .  A
C2612      S2618   1.716       .  A
C2613      C2614   1.407       .  A
C2613      H2622   1.083       .  S
C2614      C2617   1.370       .  A
S2615      C2616   1.720       .  A
C2616      C2617   1.389       .  A
C2617      H2623   1.083       .  S
S2618      C2619   1.724       .  A
C2619      C2620   1.382       .  A
C2620      H2624   1.084       .  S
C2625      C2630   1.387       .  A
C2625      C2626   1.398       .  A
C2625      S2631   1.701       .  A
C2626      C2627   1.398       .  A
C2626      H2637   1.083       .  S
C2627      C2636   1.366       .  A
C2627      C2628   1.388       .  A
C2628      C2629   1.402       .  A
C2628      S2634   1.708       .  A
C2629      C2630   1.403       .  A
C2629      H2638   1.083       .  S
C2630      C2633   1.371       .  A
S2631      C2632   1.722       .  A
C2632      C2633   1.387       .  A
C2633      H2639   1.083       .  S
S2634      C2635   1.720       .  A
C2635      C2636   1.381       .  A
C2636      H2640   1.083       .  S
C2641      C2646   1.387       .  A
C2641      C2642   1.398       .  A
C2641      S2647   1.701       .  A
C2642      C2643   1.399       .  A
C2642      H2653   1.083       .  S
C2643      C2652   1.368       .  A
C2643      C2644   1.388       .  A
C2644      C2645   1.403       .  A
C2644      S2650   1.708       .  A
C2645      C2646   1.403       .  A
C2645      H2654   1.083       .  S
C2646      C2649   1.372       .  A
S2647      C2648   1.722       .  A
C2648      C2649   1.387       .  A
C2649      H2655   1.083       .  S
S2650      C2651   1.721       .  A
C2651      C2652   1.382       .  A
C2652      H2656   1.083       .  S
C2657      C2662   1.387       .  A
C2657      C2658   1.399       .  A
C2657      S2663   1.704       .  A
C2658      C2659   1.400       .  A
C2658      H2669   1.083       .  S
C2659      C2668   1.367       .  A
C2659      C2660   1.388       .  A
C2660      C2661   1.400       .  A
C2660      S2666   1.706       .  A
C2661      C2662   1.402       .  A
C2661      H2670   1.083       .  S
C2662      C2665   1.369       .  A
S2663      C2664   1.722       .  A
C2664      C2665   1.386       .  A
C2665      H2671   1.083       .  S
S2666      C2667   1.719       .  A
C2667      C2668   1.382       .  A
C2668      H2672   1.083       .  S
C2673      C2678   1.387       .  A
C2673      C2674   1.401       .  A
C2673      S2679   1.704       .  A
C2674      C2675   1.401       .  A
C2674      H2685   1.083       .  S
C2675      C2684   1.371       .  A
C2675      C2676   1.388       .  A
C2676      C2677   1.405       .  A
C2676      S2682   1.710       .  A
C2677      C2678   1.405       .  A
C2677      H2686   1.083       .  S
C2678      C2681   1.375       .  A
S2679      C2680   1.723       .  A
C2680      C2681   1.389       .  A
C2681      H2687   1.083       .  S
S2682      C2683   1.722       .  A
C2683      C2684   1.384       .  A
C2684      H2688   1.083       .  S
C2689      C2694   1.388       .  A
C2689      C2690   1.402       .  A
C2689      S2695   1.707       .  A
C2690      C2691   1.403       .  A
C2690      H2701   1.083       .  S
C2691      C2700   1.371       .  A
C2691      C2692   1.387       .  A
C2692      C2693   1.401       .  A
C2692      S2698   1.706       .  A
C2693      C2694   1.401       .  A
C2693      H2702   1.083       .  S
C2694      C2697   1.369       .  A
S2695      C2696   1.721       .  A
C2696      C2697   1.384       .  A
C2697      H2703   1.083       .  S
S2698      C2699   1.723       .  A
C2699      C2700   1.388       .  A
C2700      H2704   1.083       .  S
C2705      C2710   1.387       .  A
C2705      C2706   1.402       .  A
C2705      S2711   1.708       .  A
C2706      C2707   1.403       .  A
C2706      H2717   1.083       .  S
C2707      C2716   1.370       .  A
C2707      C2708   1.387       .  A
C2708      C2709   1.402       .  A
C2708      S2714   1.709       .  A
C2709      C2710   1.403       .  A
C2709      H2718   1.083       .  S
C2710      C2713   1.371       .  A
S2711      C2712   1.725       .  A
C2712      C2713   1.387       .  A
C2713      H2719   1.083       .  S
S2714      C2715   1.720       .  A
C2715      C2716   1.384       .  A
C2716      H2720   1.083       .  S
C2721      C2726   1.387       .  A
C2721      C2722   1.402       .  A
C2721      S2727   1.707       .  A
C2722      C2723   1.402       .  A
C2722      H2733   1.083       .  S
C2723      C2732   1.371       .  A
C2723      C2724   1.387       .  A
C2724      C2725   1.405       .  A
C2724      S2730   1.711       .  A
C2725      C2726   1.405       .  A
C2725      H2734   1.083       .  S
C2726      C2729   1.374       .  A
S2727      C2728   1.725       .  A
C2728      C2729   1.390       .  A
C2729      H2735   1.083       .  S
S2730      C2731   1.723       .  A
C2731      C2732   1.384       .  A
C2732      H2736   1.083       .  S
C2737      C2742   1.387       .  A
C2737      C2738   1.401       .  A
C2737      S2743   1.705       .  A
C2738      C2739   1.402       .  A
C2738      H2749   1.083       .  S
C2739      C2748   1.370       .  A
C2739      C2740   1.388       .  A
C2740      C2741   1.403       .  A
C2740      S2746   1.709       .  A
C2741      C2742   1.403       .  A
C2741      H2750   1.083       .  S
C2742      C2745   1.373       .  A
S2743      C2744   1.724       .  A
C2744      C2745   1.388       .  A
C2745      H2751   1.083       .  S
S2746      C2747   1.721       .  A
C2747      C2748   1.384       .  A
C2748      H2752   1.083       .  S
C2753      C2758   1.388       .  A
C2753      C2754   1.402       .  A
C2753      S2759   1.709       .  A
C2754      C2755   1.403       .  A
C2754      H2765   1.083       .  S
C2755      C2764   1.371       .  A
C2755      C2756   1.387       .  A
C2756      C2757   1.400       .  A
C2756      S2762   1.705       .  A
C2757      C2758   1.401       .  A
C2757      H2766   1.083       .  S
C2758      C2761   1.368       .  A
S2759      C2760   1.722       .  A
C2760      C2761   1.383       .  A
C2761      H2767   1.083       .  S
S2762      C2763   1.724       .  A
C2763      C2764   1.388       .  A
C2764      H2768   1.083       .  S
C2769      C2774   1.387       .  A
C2769      C2770   1.403       .  A
C2769      S2775   1.709       .  A
C2770      C2771   1.403       .  A
C2770      H2781   1.083       .  S
C2771      C2780   1.372       .  A
C2771      C2772   1.388       .  A
C2772      C2773   1.403       .  A
C2772      S2778   1.710       .  A
C2773      C2774   1.404       .  A
C2773      H2782   1.083       .  S
C2774      C2777   1.372       .  A
S2775      C2776   1.724       .  A
C2776      C2777   1.389       .  A
C2777      H2783   1.083       .  S
S2778      C2779   1.721       .  A
C2779      C2780   1.385       .  A
C2780      H2784   1.083       .  S
C2785      C2790   1.387       .  A
C2785      C2786   1.404       .  A
C2785      S2791   1.710       .  A
C2786      C2787   1.404       .  A
C2786      H2797   1.083       .  S
C2787      C2796   1.374       .  A
C2787      C2788   1.386       .  A
C2788      C2789   1.404       .  A
C2788      S2794   1.709       .  A
C2789      C2790   1.405       .  A
C2789      H2798   1.083       .  S
C2790      C2793   1.374       .  A
S2791      C2792   1.722       .  A
C2792      C2793   1.387       .  A
C2793      H2799   1.083       .  S
S2794      C2795   1.726   1_655  A
C2795      C2796   1.389   1_455  A
C2796      H2800   1.083       .  S
C2801      C2806   1.386       .  A
C2801      C2802   1.405       .  A
C2801      S2807   1.711       .  A
C2802      C2803   1.406       .  A
C2802      H2813   1.083       .  S
C2803      C2812   1.375       .  A
C2803      C2804   1.387       .  A
C2804      C2805   1.402       .  A
C2804      S2810   1.708       .  A
C2805      C2806   1.402       .  A
C2805      H2814   1.083       .  S
C2806      C2809   1.372       .  A
S2807      C2808   1.726       .  A
C2808      C2809   1.387       .  A
C2809      H2815   1.083       .  S
S2810      C2811   1.720       .  A
C2811      C2812   1.388       .  A
C2812      H2816   1.083       .  S
C2817      C2822   1.387       .  A
C2817      C2818   1.401       .  A
C2817      S2823   1.709       .  A
C2818      C2819   1.403       .  A
C2818      H2829   1.083       .  S
C2819      C2828   1.368       .  A
C2819      C2820   1.387       .  A
C2820      C2821   1.404       .  A
C2820      S2826   1.714       .  A
C2821      C2822   1.406       .  A
C2821      H2830   1.083       .  S
C2822      C2825   1.373       .  A
S2823      C2824   1.726       .  A
C2824      C2825   1.390       .  A
C2825      H2831   1.083       .  S
S2826      C2827   1.722       .  A
C2827      C2828   1.386       .  A
C2828      H2832   1.083       .  S
C2833      C2838   1.388       .  A
C2833      C2834   1.403       .  A
C2833      S2839   1.709       .  A
C2834      C2835   1.404       .  A
C2834      H2845   1.083       .  S
C2835      C2844   1.373       .  A
C2835      C2836   1.387       .  A
C2836      C2837   1.402       .  A
C2836      S2842   1.707       .  A
C2837      C2838   1.402       .  A
C2837      H2846   1.083       .  S
C2838      C2841   1.371       .  A
S2839      C2840   1.722       .  A
C2840      C2841   1.384       .  A
C2841      H2847   1.083       .  S
S2842      C2843   1.724       .  A
C2843      C2844   1.389       .  A
C2844      H2848   1.083       .  S
C2849      C2854   1.387       .  A
C2849      C2850   1.402       .  A
C2849      S2855   1.704       .  A
C2850      C2851   1.401       .  A
C2850      H2861   1.083       .  S
C2851      C2860   1.372       .  A
C2851      C2852   1.387       .  A
C2852      C2853   1.406       .  A
C2852      S2858   1.711       .  A
C2853      C2854   1.406       .  A
C2853      H2862   1.083       .  S
C2854      C2857   1.378       .  A
S2855      C2856   1.725       .  A
C2856      C2857   1.390       .  A
C2857      H2863   1.083       .  S
S2858      C2859   1.724       .  A
C2859      C2860   1.384       .  A
C2860      H2864   1.083       .  S
C2865      C2870   1.387       .  A
C2865      C2866   1.402       .  A
C2865      S2871   1.706       .  A
C2866      C2867   1.402       .  A
C2866      H2877   1.083       .  S
C2867      C2876   1.372       .  A
C2867      C2868   1.387       .  A
C2868      C2869   1.406       .  A
C2868      S2874   1.711       .  A
C2869      C2870   1.406       .  A
C2869      H2878   1.083       .  S
C2870      C2873   1.377       .  A
S2871      C2872   1.724       .  A
C2872      C2873   1.389       .  A
C2873      H2879   1.083       .  S
S2874      C2875   1.727       .  A
C2875      C2876   1.387       .  A
C2876      H2880   1.083       .  S
C2881      C2886   1.388       .  A
C2881      C2882   1.402       .  A
C2881      S2887   1.709       .  A
C2882      C2883   1.403       .  A
C2882      H2893   1.083       .  S
C2883      C2892   1.372       .  A
C2883      C2884   1.387       .  A
C2884      C2885   1.403       .  A
C2884      S2890   1.707       .  A
C2885      C2886   1.403       .  A
C2885      H2894   1.083       .  S
C2886      C2889   1.371       .  A
S2887      C2888   1.720       .  A
C2888      C2889   1.385       .  A
C2889      H2895   1.083       .  S
S2890      C2891   1.725       .  A
C2891      C2892   1.387       .  A
C2892      H2896   1.083       .  S
C2897      C2902   1.387       .  A
C2897      C2898   1.401       .  A
C2897      S2903   1.706       .  A
C2898      C2899   1.402       .  A
C2898      H2909   1.083       .  S
C2899      C2908   1.370       .  A
C2899      C2900   1.388       .  A
C2900      C2901   1.403       .  A
C2900      S2906   1.709       .  A
C2901      C2902   1.404       .  A
C2901      H2910   1.083       .  S
C2902      C2905   1.372       .  A
S2903      C2904   1.724       .  A
C2904      C2905   1.388       .  A
C2905      H2911   1.083       .  S
S2906      C2907   1.721       .  A
C2907      C2908   1.384       .  A
C2908      H2912   1.083       .  S
C2913      C2918   1.387       .  A
C2913      C2914   1.400       .  A
C2913      S2919   1.705       .  A
C2914      C2915   1.400       .  A
C2914      H2925   1.083       .  S
C2915      C2924   1.369       .  A
C2915      C2916   1.388       .  A
C2916      C2917   1.404       .  A
C2916      S2922   1.710       .  A
C2917      C2918   1.405       .  A
C2917      H2926   1.083       .  S
C2918      C2921   1.373       .  A
S2919      C2920   1.723       .  A
C2920      C2921   1.389       .  A
C2921      H2927   1.083       .  S
S2922      C2923   1.722       .  A
C2923      C2924   1.383       .  A
C2924      H2928   1.083       .  S
C2929      C2934   1.387       .  A
C2929      C2930   1.405       .  A
C2929      S2935   1.711       .  A
C2930      C2931   1.405       .  A
C2930      H2941   1.083       .  S
C2931      C2940   1.374       .  A
C2931      C2932   1.387       .  A
C2932      C2933   1.400       .  A
C2932      S2938   1.705       .  A
C2933      C2934   1.401       .  A
C2933      H2942   1.083       .  S
C2934      C2937   1.370       .  A
S2935      C2936   1.723       .  A
C2936      C2937   1.384       .  A
C2937      H2943   1.083       .  S
S2938      C2939   1.723       .  A
C2939      C2940   1.390       .  A
C2940      H2944   1.083       .  S
C2945      C2950   1.388       .  A
C2945      C2946   1.403       .  A
C2945      S2951   1.708       .  A
C2946      C2947   1.404       .  A
C2946      H2957   1.083       .  S
C2947      C2956   1.372       .  A
C2947      C2948   1.387       .  A
C2948      C2949   1.400       .  A
C2948      S2954   1.705       .  A
C2949      C2950   1.400       .  A
C2949      H2958   1.083       .  S
C2950      C2953   1.369       .  A
S2951      C2952   1.721       .  A
C2952      C2953   1.382       .  A
C2953      H2959   1.083       .  S
S2954      C2955   1.723   1_565  A
C2955      C2956   1.389   1_545  A
C2956      H2960   1.083   1_565  S
C2961      C2966   1.386       .  A
C2961      C2962   1.403       .  A
C2961      S2967   1.710       .  A
C2962      C2963   1.404       .  A
C2962      H2973   1.083       .  S
C2963      C2972   1.373       .  A
C2963      C2964   1.387       .  A
C2964      C2965   1.404       .  A
C2964      S2970   1.712       .  A
C2965      C2966   1.405       .  A
C2965      H2974   1.083       .  S
C2966      C2969   1.373       .  A
S2967      C2968   1.724       .  A
C2968      C2969   1.390       .  A
C2969      H2975   1.083       .  S
S2970      C2971   1.724       .  A
C2971      C2972   1.387       .  A
C2972      H2976   1.083       .  S
C2977      C2982   1.388       .  A
C2977      C2978   1.404       .  A
C2977      S2983   1.710       .  A
C2978      C2979   1.404       .  A
C2978      H2989   1.083       .  S
C2979      C2988   1.376       .  A
C2979      C2980   1.387       .  A
C2980      C2981   1.401       .  A
C2980      S2986   1.703       .  A
C2981      C2982   1.401       .  A
C2981      H2990   1.083       .  S
C2982      C2985   1.371       .  A
S2983      C2984   1.721       .  A
C2984      C2985   1.384       .  A
C2985      H2991   1.083       .  S
S2986      C2987   1.726       .  A
C2987      C2988   1.388       .  A
C2988      H2992   1.083       .  S
C2993      C2998   1.388       .  A
C2993      C2994   1.401       .  A
C2993      S2999   1.709       .  A
C2994      C2995   1.402       .  A
C2994      H3005   1.083       .  S
C2995      C3004   1.370       .  A
C2995      C2996   1.387       .  A
C2996      C2997   1.400       .  A
C2996      S3002   1.706       .  A
C2997      C2998   1.401       .  A
C2997      H3006   1.083       .  S
C2998      C3001   1.367       .  A
S2999      C3000   1.720       .  A
C3000      C3001   1.383       .  A
C3001      H3007   1.083       .  S
S3002      C3003   1.724       .  A
C3003      C3004   1.386       .  A
C3004      H3008   1.083       .  S
C3009      C3014   1.387       .  A
C3009      C3010   1.405       .  A
C3009      S3015   1.709       .  A
C3010      C3011   1.405       .  A
C3010      H3021   1.083       .  S
C3011      C3020   1.377       .  A
C3011      C3012   1.387       .  A
C3012      C3013   1.404       .  A
C3012      S3018   1.706       .  A
C3013      C3014   1.403       .  A
C3013      H3022   1.083       .  S
C3014      C3017   1.374       .  A
S3015      C3016   1.722       .  A
C3016      C3017   1.386       .  A
C3017      H3023   1.083       .  S
S3018      C3019   1.727   1_565  A
C3019      C3020   1.389   1_545  A
C3020      H3024   1.083       .  S
C3025      C3030   1.387       .  A
C3025      C3026   1.406       .  A
C3025      S3031   1.717       .  A
C3026      C3027   1.408       .  A
C3026      H3037   1.083       .  S
C3027      C3036   1.372       .  A
C3027      C3028   1.387       .  A
C3028      C3029   1.396       .  A
C3028      S3034   1.705       .  A
C3029      C3030   1.398       .  A
C3029      H3038   1.083       .  S
C3030      C3033   1.362       .  A
S3031      C3032   1.725       .  A
C3032      C3033   1.382       .  A
C3033      H3039   1.084       .  S
S3034      C3035   1.719       .  A
C3035      C3036   1.390       .  A
C3036      H3040   1.083       .  S
C3041      C3046   1.387       .  A
C3041      C3042   1.399       .  A
C3041      S3047   1.703       .  A
C3042      C3043   1.400       .  A
C3042      H3053   1.083       .  S
C3043      C3052   1.367       .  A
C3043      C3044   1.386       .  A
C3044      C3045   1.406       .  A
C3044      S3050   1.714       .  A
C3045      C3046   1.407       .  A
C3045      H3054   1.083       .  S
C3046      C3049   1.375       .  A
S3047      C3048   1.724       .  A
C3048      C3049   1.390       .  A
C3049      H3055   1.083       .  S
S3050      C3051   1.724       .  A
C3051      C3052   1.385       .  A
C3052      H3056   1.083       .  S
C3057      C3062   1.387       .  A
C3057      C3058   1.404       .  A
C3057      S3063   1.709       .  A
C3058      C3059   1.404       .  A
C3058      H3069   1.083       .  S
C3059      C3068   1.374       .  A
C3059      C3060   1.387       .  A
C3060      C3061   1.402       .  A
C3060      S3066   1.706       .  A
C3061      C3062   1.403       .  A
C3061      H3070   1.083       .  S
C3062      C3065   1.373       .  A
S3063      C3064   1.722       .  A
C3064      C3065   1.386       .  A
C3065      H3071   1.083       .  S
S3066      C3067   1.721       .  A
C3067      C3068   1.386       .  A
C3068      H3072   1.083       .  S
C3073      C3078   1.388       .  A
C3073      C3074   1.401       .  A
C3073      S3079   1.709       .  A
C3074      C3075   1.403       .  A
C3074      H3085   1.083       .  S
C3075      C3084   1.369       .  A
C3075      C3076   1.387       .  A
C3076      C3077   1.400       .  A
C3076      S3082   1.707       .  A
C3077      C3078   1.401       .  A
C3077      H3086   1.083       .  S
C3078      C3081   1.367       .  A
S3079      C3080   1.720       .  A
C3080      C3081   1.382       .  A
C3081      H3087   1.083       .  S
S3082      C3083   1.723       .  A
C3083      C3084   1.387       .  A
C3084      H3088   1.083       .  S
C3089      C3094   1.387       .  A
C3089      C3090   1.405       .  A
C3089      S3095   1.714       .  A
C3090      C3091   1.406       .  A
C3090      H3101   1.083       .  S
C3091      C3100   1.372       .  A
C3091      C3092   1.387       .  A
C3092      C3093   1.398       .  A
C3092      S3098   1.705       .  A
C3093      C3094   1.400       .  A
C3093      H3102   1.083       .  S
C3094      C3097   1.366       .  A
S3095      C3096   1.723       .  A
C3096      C3097   1.384       .  A
C3097      H3103   1.083       .  S
S3098      C3099   1.723       .  A
C3099      C3100   1.390       .  A
C3100      H3104   1.083       .  S
C3105      C3110   1.387       .  A
C3105      C3106   1.400       .  A
C3105      S3111   1.706       .  A
C3106      C3107   1.401       .  A
C3106      H3117   1.083       .  S
C3107      C3116   1.367       .  A
C3107      C3108   1.388       .  A
C3108      C3109   1.398       .  A
C3108      S3114   1.705       .  A
C3109      C3110   1.400       .  A
C3109      H3118   1.083       .  S
C3110      C3113   1.366       .  A
S3111      C3112   1.724       .  A
C3112      C3113   1.386       .  A
C3113      H3119   1.083       .  S
S3114      C3115   1.718       .  A
C3115      C3116   1.382       .  A
C3116      H3120   1.083       .  S
C3121      C3126   1.386       .  A
C3121      C3122   1.405       .  A
C3121      S3127   1.711       .  A
C3122      C3123   1.406       .  A
C3122      H3133   1.083       .  S
C3123      C3132   1.373       .  A
C3123      C3124   1.387       .  A
C3124      C3125   1.399       .  A
C3124      S3130   1.706       .  A
C3125      C3126   1.401       .  A
C3125      H3134   1.083       .  S
C3126      C3129   1.369       .  A
S3127      C3128   1.727       .  A
C3128      C3129   1.386       .  A
C3129      H3135   1.083       .  S
S3130      C3131   1.720       .  A
C3131      C3132   1.388       .  A
C3132      H3136   1.083       .  S
C3137      C3142   1.387       .  A
C3137      C3138   1.407       .  A
C3137      S3143   1.712       .  A
C3138      C3139   1.407       .  A
C3138      H3149   1.083       .  S
C3139      C3148   1.378       .  A
C3139      C3140   1.387       .  A
C3140      C3141   1.400       .  A
C3140      S3146   1.702       .  A
C3141      C3142   1.400       .  A
C3141      H3150   1.083       .  S
C3142      C3145   1.371       .  A
S3143      C3144   1.726       .  A
C3144      C3145   1.385       .  A
C3145      H3151   1.083       .  S
S3146      C3147   1.724       .  A
C3147      C3148   1.391       .  A
C3148      H3152   1.083       .  S
C3153      C3158   1.388       .  A
C3153      C3154   1.400       .  A
C3153      S3159   1.708       .  A
C3154      C3155   1.402       .  A
C3154      H3165   1.083       .  S
C3155      C3164   1.368       .  A
C3155      C3156   1.387       .  A
C3156      C3157   1.403       .  A
C3156      S3162   1.711       .  A
C3157      C3158   1.404       .  A
C3157      H3166   1.083       .  S
C3158      C3161   1.370       .  A
S3159      C3160   1.719       .  A
C3160      C3161   1.384       .  A
C3161      H3167   1.083       .  S
S3162      C3163   1.723       .  A
C3163      C3164   1.387       .  A
C3164      H3168   1.083       .  S
C3169      C3174   1.387       .  A
C3169      C3170   1.396       .  A
C3169      S3175   1.701       .  A
C3170      C3171   1.397       .  A
C3170      H3181   1.083       .  S
C3171      C3180   1.364       .  A
C3171      C3172   1.388       .  A
C3172      C3173   1.402       .  A
C3172      S3178   1.707       .  A
C3173      C3174   1.403       .  A
C3173      H3182   1.083       .  S
C3174      C3177   1.370       .  A
S3175      C3176   1.721       .  A
C3176      C3177   1.388       .  A
C3177      H3183   1.083       .  S
S3178      C3179   1.720       .  A
C3179      C3180   1.379       .  A
C3180      H3184   1.083       .  S
C3185      C3190   1.387       .  A
C3185      C3186   1.402       .  A
C3185      S3191   1.708       .  A
C3186      C3187   1.403       .  A
C3186      H3197   1.083       .  S
C3187      C3196   1.370       .  A
C3187      C3188   1.388       .  A
C3188      C3189   1.400       .  A
C3188      S3194   1.708       .  A
C3189      C3190   1.402       .  A
C3189      H3198   1.083       .  S
C3190      C3193   1.369       .  A
S3191      C3192   1.725       .  A
C3192      C3193   1.386       .  A
C3193      H3199   1.083       .  S
S3194      C3195   1.721       .  A
C3195      C3196   1.385       .  A
C3196      H3200   1.083       .  S
C3201      C3206   1.388       .  A
C3201      C3202   1.399       .  A
C3201      S3207   1.705       .  A
C3202      C3203   1.400       .  A
C3202      H3213   1.083       .  S
C3203      C3212   1.368       .  A
C3203      C3204   1.387       .  A
C3204      C3205   1.404       .  A
C3204      S3210   1.711       .  A
C3205      C3206   1.405       .  A
C3205      H3214   1.083       .  S
C3206      C3209   1.372       .  A
S3207      C3208   1.718       .  A
C3208      C3209   1.387       .  A
C3209      H3215   1.083       .  S
S3210      C3211   1.725       .  A
C3211      C3212   1.384       .  A
C3212      H3216   1.083       .  S
C3217      C3222   1.387       .  A
C3217      C3218   1.399       .  A
C3217      S3223   1.704       .  A
C3218      C3219   1.400       .  A
C3218      H3229   1.083       .  S
C3219      C3228   1.369       .  A
C3219      C3220   1.387       .  A
C3220      C3221   1.406       .  A
C3220      S3226   1.713       .  A
C3221      C3222   1.406       .  A
C3221      H3230   1.083       .  S
C3222      C3225   1.374       .  A
S3223      C3224   1.722       .  A
C3224      C3225   1.390       .  A
C3225      H3231   1.083       .  S
S3226      C3227   1.724       .  A
C3227      C3228   1.383       .  A
C3228      H3232   1.083       .  S
C3233      C3238   1.386       .  A
C3233      C3234   1.406       .  A
C3233      S3239   1.714       .  A
C3234      C3235   1.407       .  A
C3234      H3245   1.083       .  S
C3235      C3244   1.373       .  A
C3235      C3236   1.388       .  A
C3236      C3237   1.398       .  A
C3236      S3242   1.707       .  A
C3237      C3238   1.400       .  A
C3237      H3246   1.083       .  S
C3238      C3241   1.366       .  A
S3239      C3240   1.727       .  A
C3240      C3241   1.386       .  A
C3241      H3247   1.083       .  S
S3242      C3243   1.718       .  A
C3243      C3244   1.388       .  A
C3244      H3248   1.083       .  S
C3249      C3254   1.388       .  A
C3249      C3250   1.401       .  A
C3249      S3255   1.704       .  A
C3250      C3251   1.401       .  A
C3250      H3261   1.083       .  S
C3251      C3260   1.371       .  A
C3251      C3252   1.387       .  A
C3252      C3253   1.401       .  A
C3252      S3258   1.702       .  A
C3253      C3254   1.401       .  A
C3253      H3262   1.083       .  S
C3254      C3257   1.370       .  A
S3255      C3256   1.719       .  A
C3256      C3257   1.384       .  A
C3257      H3263   1.083       .  S
S3258      C3259   1.724       .  A
C3259      C3260   1.385       .  A
C3260      H3264   1.083       .  S
C3265      C3270   1.387       .  A
C3265      C3266   1.400       .  A
C3265      S3271   1.707       .  A
C3266      C3267   1.401       .  A
C3266      H3277   1.083       .  S
C3267      C3276   1.368       .  A
C3267      C3268   1.388       .  A
C3268      C3269   1.399       .  A
C3268      S3274   1.706       .  A
C3269      C3270   1.401       .  A
C3269      H3278   1.083       .  S
C3270      C3273   1.367   1_556  A
S3271      C3272   1.722   1_556  A
C3272      C3273   1.386       .  A
C3273      H3279   1.083       .  S
S3274      C3275   1.719       .  A
C3275      C3276   1.383       .  A
C3276      H3280   1.083       .  S
C3281      C3286   1.388       .  A
C3281      C3282   1.400       .  A
C3281      S3287   1.705       .  A
C3282      C3283   1.401       .  A
C3282      H3293   1.083       .  S
C3283      C3292   1.370       .  A
C3283      C3284   1.387       .  A
C3284      C3285   1.401       .  A
C3284      S3290   1.705       .  A
C3285      C3286   1.401       .  A
C3285      H3294   1.083       .  S
C3286      C3289   1.370       .  A
S3287      C3288   1.719       .  A
C3288      C3289   1.384       .  A
C3289      H3295   1.083       .  S
S3290      C3291   1.725       .  A
C3291      C3292   1.385       .  A
C3292      H3296   1.083       .  S
C3297      C3302   1.387       .  A
C3297      C3298   1.399       .  A
C3297      S3303   1.703       .  A
C3298      C3299   1.400       .  A
C3298      H3309   1.083       .  S
C3299      C3308   1.368       .  A
C3299      C3300   1.388       .  A
C3300      C3301   1.401       .  A
C3300      S3306   1.706       .  A
C3301      C3302   1.402       .  A
C3301      H3310   1.083       .  S
C3302      C3305   1.370       .  A
S3303      C3304   1.722       .  A
C3304      C3305   1.386       .  A
C3305      H3311   1.083       .  S
S3306      C3307   1.720       .  A
C3307      C3308   1.383       .  A
C3308      H3312   1.083       .  S
C3313      C3318   1.387       .  A
C3313      C3314   1.404       .  A
C3313      S3319   1.707       .  A
C3314      C3315   1.404       .  A
C3314      H3325   1.083       .  S
C3315      C3324   1.374       .  A
C3315      C3316   1.387       .  A
C3316      C3317   1.404       .  A
C3316      S3322   1.709       .  A
C3317      C3318   1.404       .  A
C3317      H3326   1.083       .  S
C3318      C3321   1.376       .  A
S3319      C3320   1.727       .  A
C3320      C3321   1.388       .  A
C3321      H3327   1.083       .  S
S3322      C3323   1.722       .  A
C3323      C3324   1.386       .  A
C3324      H3328   1.083       .  S
C3329      C3334   1.387       .  A
C3329      C3330   1.405       .  A
C3329      S3335   1.712       .  A
C3330      C3331   1.405       .  A
C3330      H3341   1.083       .  S
C3331      C3340   1.376       .  A
C3331      C3332   1.387       .  A
C3332      C3333   1.402       .  A
C3332      S3338   1.705       .  A
C3333      C3334   1.402       .  A
C3333      H3342   1.083       .  S
C3334      C3337   1.372       .  A
S3335      C3336   1.723       .  A
C3336      C3337   1.385       .  A
C3337      H3343   1.083       .  S
S3338      C3339   1.727       .  A
C3339      C3340   1.388       .  A
C3340      H3344   1.083       .  S
C3345      C3350   1.388       .  A
C3345      C3346   1.396       .  A
C3345      S3351   1.703       .  A
C3346      C3347   1.398       .  A
C3346      H3357   1.083       .  S
C3347      C3356   1.365       .  A
C3347      C3348   1.387       .  A
C3348      C3349   1.401       .  A
C3348      S3354   1.706       .  A
C3349      C3350   1.402       .  A
C3349      H3358   1.083       .  S
C3350      C3353   1.368       .  A
S3351      C3352   1.716       .  A
C3352      C3353   1.384       .  A
C3353      H3359   1.083       .  S
S3354      C3355   1.724       .  A
C3355      C3356   1.383       .  A
C3356      H3360   1.083       .  S
C3361      C3366   1.387       .  A
C3361      C3362   1.399       .  A
C3361      S3367   1.705       .  A
C3362      C3363   1.401       .  A
C3362      H3373   1.083       .  S
C3363      C3372   1.366       .  A
C3363      C3364   1.386       .  A
C3364      C3365   1.406       .  A
C3364      S3370   1.717       .  A
C3365      C3366   1.408       .  A
C3365      H3374   1.083       .  S
C3366      C3369   1.375       .  A
S3367      C3368   1.723       .  A
C3368      C3369   1.389       .  A
C3369      H3375   1.083       .  S
S3370      C3371   1.724       .  A
C3371      C3372   1.386       .  A
C3372      H3376   1.084       .  S
C3377      C3382   1.387       .  A
C3377      C3378   1.403       .  A
C3377      S3383   1.708       .  A
C3378      C3379   1.403       .  A
C3378      H3389   1.083       .  S
C3379      C3388   1.373       .  A
C3379      C3380   1.387       .  A
C3380      C3381   1.401       .  A
C3380      S3386   1.704       .  A
C3381      C3382   1.401       .  A
C3381      H3390   1.083       .  S
C3382      C3385   1.371       .  A
S3383      C3384   1.722       .  A
C3384      C3385   1.385       .  A
C3385      H3391   1.083       .  S
S3386      C3387   1.724       .  A
C3387      C3388   1.388       .  A
C3388      H3392   1.083       .  S
C3393      C3398   1.387       .  A
C3393      C3394   1.404       .  A
C3393      S3399   1.708       .  A
C3394      C3395   1.404       .  A
C3394      H3405   1.083       .  S
C3395      C3404   1.372       .  A
C3395      C3396   1.388       .  A
C3396      C3397   1.401       .  A
C3396      S3402   1.707       .  A
C3397      C3398   1.402       .  A
C3397      H3406   1.083       .  S
C3398      C3401   1.372       .  A
S3399      C3400   1.727       .  A
C3400      C3401   1.386       .  A
C3401      H3407   1.083       .  S
S3402      C3403   1.719       .  A
C3403      C3404   1.386       .  A
C3404      H3408   1.083       .  S
C3409      C3414   1.387       .  A
C3409      C3410   1.402       .  A
C3409      S3415   1.707       .  A
C3410      C3411   1.403       .  A
C3410      H3421   1.083       .  S
C3411      C3420   1.372   1_554  A
C3411      C3412   1.387       .  A
C3412      C3413   1.403       .  A
C3412      S3418   1.708       .  A
C3413      C3414   1.403       .  A
C3413      H3422   1.083       .  S
C3414      C3417   1.372       .  A
S3415      C3416   1.724       .  A
C3416      C3417   1.385       .  A
C3417      H3423   1.083       .  S
S3418      C3419   1.724   1_554  A
C3419      C3420   1.388       .  A
C3420      H3424   1.083       .  S
C3425      C3430   1.387       .  A
C3425      C3426   1.400       .  A
C3425      S3431   1.707       .  A
C3426      C3427   1.401       .  A
C3426      H3437   1.083       .  S
C3427      C3436   1.368       .  A
C3427      C3428   1.388       .  A
C3428      C3429   1.402       .  A
C3428      S3434   1.710       .  A
C3429      C3430   1.403       .  A
C3429      H3438   1.083       .  S
C3430      C3433   1.371       .  A
S3431      C3432   1.723       .  A
C3432      C3433   1.388       .  A
C3433      H3439   1.083       .  S
S3434      C3435   1.721       .  A
C3435      C3436   1.383       .  A
C3436      H3440   1.083       .  S
C3441      C3446   1.386       .  A
C3441      C3442   1.403       .  A
C3441      S3447   1.710       .  A
C3442      C3443   1.404       .  A
C3442      H3453   1.083       .  S
C3443      C3452   1.373       .  A
C3443      C3444   1.387       .  A
C3444      C3445   1.404       .  A
C3444      S3450   1.712       .  A
C3445      C3446   1.405       .  A
C3445      H3454   1.083       .  S
C3446      C3449   1.374       .  A
S3447      C3448   1.725       .  A
C3448      C3449   1.390       .  A
C3449      H3455   1.083       .  S
S3450      C3451   1.722       .  A
C3451      C3452   1.385       .  A
C3452      H3456   1.083       .  S
C3457      C3462   1.386       .  A
C3457      C3458   1.404       .  A
C3457      S3463   1.710       .  A
C3458      C3459   1.404       .  A
C3458      H3469   1.083       .  S
C3459      C3468   1.373       .  A
C3459      C3460   1.388       .  A
C3460      C3461   1.402       .  A
C3460      S3466   1.709       .  A
C3461      C3462   1.403       .  A
C3461      H3470   1.083       .  S
C3462      C3465   1.372       .  A
S3463      C3464   1.724       .  A
C3464      C3465   1.389       .  A
C3465      H3471   1.083       .  S
S3466      C3467   1.720       .  A
C3467      C3468   1.386       .  A
C3468      H3472   1.083       .  S
C3473      C3478   1.387       .  A
C3473      C3474   1.404       .  A
C3473      S3479   1.709       .  A
C3474      C3475   1.405       .  A
C3474      H3485   1.083       .  S
C3475      C3484   1.373       .  A
C3475      C3476   1.388       .  A
C3476      C3477   1.399       .  A
C3476      S3482   1.705       .  A
C3477      C3478   1.399       .  A
C3477      H3486   1.083       .  S
C3478      C3481   1.368       .  A
S3479      C3480   1.726       .  A
C3480      C3481   1.385       .  A
C3481      H3487   1.083       .  S
S3482      C3483   1.718       .  A
C3483      C3484   1.387       .  A
C3484      H3488   1.083       .  S
C3489      C3494   1.387       .  A
C3489      C3490   1.399       .  A
C3489      S3495   1.704       .  A
C3490      C3491   1.400       .  A
C3490      H3501   1.083       .  S
C3491      C3500   1.368       .  A
C3491      C3492   1.388       .  A
C3492      C3493   1.402       .  A
C3492      S3498   1.709       .  A
C3493      C3494   1.403       .  A
C3493      H3502   1.083       .  S
C3494      C3497   1.370       .  A
S3495      C3496   1.722   1_554  A
C3496      C3497   1.387   1_556  A
C3497      H3503   1.083   1_554  S
S3498      C3499   1.721       .  A
C3499      C3500   1.382       .  A
C3500      H3504   1.083       .  S
C3505      C3510   1.388       .  A
C3505      C3506   1.399       .  A
C3505      S3511   1.707       .  A
C3506      C3507   1.401       .  A
C3506      H3517   1.083       .  S
C3507      C3516   1.367       .  A
C3507      C3508   1.386       .  A
C3508      C3509   1.403       .  A
C3508      S3514   1.710       .  A
C3509      C3510   1.404       .  A
C3509      H3518   1.083       .  S
C3510      C3513   1.370       .  A
S3511      C3512   1.719       .  A
C3512      C3513   1.386       .  A
C3513      H3519   1.083       .  S
S3514      C3515   1.725       .  A
C3515      C3516   1.386       .  A
C3516      H3520   1.083       .  S
C3521      C3526   1.387       .  A
C3521      C3522   1.401       .  A
C3521      S3527   1.705       .  A
C3522      C3523   1.401       .  A
C3522      H3533   1.083       .  S
C3523      C3532   1.369       .  A
C3523      C3524   1.388       .  A
C3524      C3525   1.400       .  A
C3524      S3530   1.706       .  A
C3525      C3526   1.401       .  A
C3525      H3534   1.083       .  S
C3526      C3529   1.370       .  A
S3527      C3528   1.723       .  A
C3528      C3529   1.385       .  A
C3529      H3535   1.083       .  S
S3530      C3531   1.720       .  A
C3531      C3532   1.384       .  A
C3532      H3536   1.083       .  S
C3537      C3542   1.387       .  A
C3537      C3538   1.403       .  A
C3537      S3543   1.711       .  A
C3538      C3539   1.405       .  A
C3538      H3549   1.083       .  S
C3539      C3548   1.371       .  A
C3539      C3540   1.387       .  A
C3540      C3541   1.400       .  A
C3540      S3546   1.708       .  A
C3541      C3542   1.401       .  A
C3541      H3550   1.083       .  S
C3542      C3545   1.368       .  A
S3543      C3544   1.724       .  A
C3544      C3545   1.385       .  A
C3545      H3551   1.083       .  S
S3546      C3547   1.721       .  A
C3547      C3548   1.387       .  A
C3548      H3552   1.083       .  S
C3553      C3558   1.387       .  A
C3553      C3554   1.399       .  A
C3553      S3559   1.703       .  A
C3554      C3555   1.399       .  A
C3554      H3565   1.083       .  S
C3555      C3564   1.368       .  A
C3555      C3556   1.388       .  A
C3556      C3557   1.404       .  A
C3556      S3562   1.710       .  A
C3557      C3558   1.405       .  A
C3557      H3566   1.083       .  S
C3558      C3561   1.373       .  A
S3559      C3560   1.721       .  A
C3560      C3561   1.390       .  A
C3561      H3567   1.083       .  S
S3562      C3563   1.722       .  A
C3563      C3564   1.382       .  A
C3564      H3568   1.083       .  S
C3569      C3574   1.387       .  A
C3569      C3570   1.396       .  A
C3569      S3575   1.703       .  A
C3570      C3571   1.398       .  A
C3570      H3581   1.083       .  S
C3571      C3580   1.363       .  A
C3571      C3572   1.386       .  A
C3572      C3573   1.408       .  A
C3572      S3578   1.718       .  A
C3573      C3574   1.409       .  A
C3573      H3582   1.083       .  S
C3574      C3577   1.375       .  A
S3575      C3576   1.721       .  A
C3576      C3577   1.392       .  A
C3577      H3583   1.083       .  S
S3578      C3579   1.726       .  A
C3579      C3580   1.384       .  A
C3580      H3584   1.084       .  S
C3585      C3590   1.387       .  A
C3585      C3586   1.406       .  A
C3585      S3591   1.710       .  A
C3586      C3587   1.406       .  A
C3586      H3597   1.083       .  S
C3587      C3596   1.375       .  A
C3587      C3588   1.388       .  A
C3588      C3589   1.395       .  A
C3588      S3594   1.696       .  A
C3589      C3590   1.395       .  A
C3589      H3598   1.083       .  S
C3590      C3593   1.364       .  A
S3591      C3592   1.729       .  A
C3592      C3593   1.382       .  A
C3593      H3599   1.083       .  S
S3594      C3595   1.719       .  A
C3595      C3596   1.387       .  A
C3596      H3600   1.083       .  S
C3601      C3606   1.387       .  A
C3601      C3602   1.401       .  A
C3601      S3607   1.710       .  A
C3602      C3603   1.402       .  A
C3602      H3613   1.083       .  S
C3603      C3612   1.367       .  A
C3603      C3604   1.388       .  A
C3604      C3605   1.397       .  A
C3604      S3610   1.704       .  A
C3605      C3606   1.399       .  A
C3605      H3614   1.083       .  S
C3606      C3609   1.363       .  A
S3607      C3608   1.720       .  A
C3608      C3609   1.383       .  A
C3609      H3615   1.083       .  S
S3610      C3611   1.720       .  A
C3611      C3612   1.383       .  A
C3612      H3616   1.083       .  S
C3617      C3622   1.387       .  A
C3617      C3618   1.401       .  A
C3617      S3623   1.707       .  A
C3618      C3619   1.402       .  A
C3618      H3629   1.083       .  S
C3619      C3628   1.369       .  A
C3619      C3620   1.388       .  A
C3620      C3621   1.402       .  A
C3620      S3626   1.709       .  A
C3621      C3622   1.404       .  A
C3621      H3630   1.083       .  S
C3622      C3625   1.371       .  A
S3623      C3624   1.723       .  A
C3624      C3625   1.389       .  A
C3625      H3631   1.083       .  S
S3626      C3627   1.721       .  A
C3627      C3628   1.383       .  A
C3628      H3632   1.083       .  S
C3633      C3638   1.387       .  A
C3633      C3634   1.402       .  A
C3633      S3639   1.709       .  A
C3634      C3635   1.403       .  A
C3634      H3645   1.083       .  S
C3635      C3644   1.369       .  A
C3635      C3636   1.388       .  A
C3636      C3637   1.398       .  A
C3636      S3642   1.705       .  A
C3637      C3638   1.400       .  A
C3637      H3646   1.083       .  S
C3638      C3641   1.365       .  A
S3639      C3640   1.724       .  A
C3640      C3641   1.385       .  A
C3641      H3647   1.083       .  S
S3642      C3643   1.719       .  A
C3643      C3644   1.384       .  A
C3644      H3648   1.083       .  S
C3649      C3654   1.387       .  A
C3649      C3650   1.401       .  A
C3649      S3655   1.703       .  A
C3650      C3651   1.401       .  A
C3650      H3661   1.083       .  S
C3651      C3660   1.371       .  A
C3651      C3652   1.387       .  A
C3652      C3653   1.404       .  A
C3652      S3658   1.709       .  A
C3653      C3654   1.404       .  A
C3653      H3662   1.083       .  S
C3654      C3657   1.374       .  A
S3655      C3656   1.724       .  A
C3656      C3657   1.388       .  A
C3657      H3663   1.083       .  S
S3658      C3659   1.722       .  A
C3659      C3660   1.386       .  A
C3660      H3664   1.083       .  S
C3665      C3670   1.387       .  A
C3665      C3666   1.404       .  A
C3665      S3671   1.710       .  A
C3666      C3667   1.405       .  A
C3666      H3677   1.083       .  S
C3667      C3676   1.374       .  A
C3667      C3668   1.387       .  A
C3668      C3669   1.401       .  A
C3668      S3674   1.704       .  A
C3669      C3670   1.401       .  A
C3669      H3678   1.083       .  S
C3670      C3673   1.370       .  A
S3671      C3672   1.723       .  A
C3672      C3673   1.385       .  A
C3673      H3679   1.083       .  S
S3674      C3675   1.724       .  A
C3675      C3676   1.389       .  A
C3676      H3680   1.083       .  S
C3681      C3686   1.386       .  A
C3681      C3682   1.404       .  A
C3681      S3687   1.710       .  A
C3682      C3683   1.405       .  A
C3682      H3693   1.083       .  S
C3683      C3692   1.372       .  A
C3683      C3684   1.388       .  A
C3684      C3685   1.399       .  A
C3684      S3690   1.707       .  A
C3685      C3686   1.401       .  A
C3685      H3694   1.083       .  S
C3686      C3689   1.368       .  A
S3687      C3688   1.726       .  A
C3688      C3689   1.386       .  A
C3689      H3695   1.083       .  S
S3690      C3691   1.718       .  A
C3691      C3692   1.386       .  A
C3692      H3696   1.083       .  S
C3697      C3702   1.386       .  A
C3697      C3698   1.407       .  A
C3697      S3703   1.718       .  A
C3698      C3699   1.409       .  A
C3698      H3709   1.083       .  S
C3699      C3708   1.374       .  A
C3699      C3700   1.387       .  A
C3700      C3701   1.395       .  A
C3700      S3706   1.702       .  A
C3701      C3702   1.397       .  A
C3701      H3710   1.083       .  S
C3702      C3705   1.362       .  A
S3703      C3704   1.725       .  A
C3704      C3705   1.383       .  A
C3705      H3711   1.084       .  S
S3706      C3707   1.719       .  A
C3707      C3708   1.390       .  A
C3708      H3712   1.083       .  S
C3713      C3718   1.387       .  A
C3713      C3714   1.401       .  A
C3713      S3719   1.706       .  A
C3714      C3715   1.402       .  A
C3714      H3725   1.083       .  S
C3715      C3724   1.371       .  A
C3715      C3716   1.388       .  A
C3716      C3717   1.402       .  A
C3716      S3722   1.708       .  A
C3717      C3718   1.403       .  A
C3717      H3726   1.083       .  S
C3718      C3721   1.371       .  A
S3719      C3720   1.724       .  A
C3720      C3721   1.387       .  A
C3721      H3727   1.083       .  S
S3722      C3723   1.722       .  A
C3723      C3724   1.384       .  A
C3724      H3728   1.083       .  S
C3729      C3734   1.388       .  A
C3729      C3730   1.400       .  A
C3729      S3735   1.707       .  A
C3730      C3731   1.402       .  A
C3730      H3741   1.083       .  S
C3731      C3740   1.370       .  A
C3731      C3732   1.386       .  A
C3732      C3733   1.404       .  A
C3732      S3738   1.711       .  A
C3733      C3734   1.405       .  A
C3733      H3742   1.083       .  S
C3734      C3737   1.372       .  A
S3735      C3736   1.719       .  A
C3736      C3737   1.386       .  A
C3737      H3743   1.083       .  S
S3738      C3739   1.726       .  A
C3739      C3740   1.387       .  A
C3740      H3744   1.083       .  S
C3745      C3750   1.387       .  A
C3745      C3746   1.402       .  A
C3745      S3751   1.706       .  A
C3746      C3747   1.402       .  A
C3746      H3757   1.083       .  S
C3747      C3756   1.371       .  A
C3747      C3748   1.388       .  A
C3748      C3749   1.401       .  A
C3748      S3754   1.707       .  A
C3749      C3750   1.402       .  A
C3749      H3758   1.083       .  S
C3750      C3753   1.372       .  A
S3751      C3752   1.725       .  A
C3752      C3753   1.388       .  A
C3753      H3759   1.083       .  S
S3754      C3755   1.719       .  A
C3755      C3756   1.384       .  A
C3756      H3760   1.083       .  S
C3761      C3766   1.387       .  A
C3761      C3762   1.402       .  A
C3761      S3767   1.707       .  A
C3762      C3763   1.403       .  A
C3762      H3773   1.083       .  S
C3763      C3772   1.372       .  A
C3763      C3764   1.387       .  A
C3764      C3765   1.403       .  A
C3764      S3770   1.709       .  A
C3765      C3766   1.404       .  A
C3765      H3774   1.083       .  S
C3766      C3769   1.373       .  A
S3767      C3768   1.725   1_545  A
C3768      C3769   1.389   1_565  A
C3769      H3775   1.083   1_545  S
S3770      C3771   1.721       .  A
C3771      C3772   1.386       .  A
C3772      H3776   1.083       .  S
C3777      C3782   1.387       .  A
C3777      C3778   1.402       .  A
C3777      S3783   1.707       .  A
C3778      C3779   1.402       .  A
C3778      H3789   1.083       .  S
C3779      C3788   1.372       .  A
C3779      C3780   1.387       .  A
C3780      C3781   1.404       .  A
C3780      S3786   1.710       .  A
C3781      C3782   1.404       .  A
C3781      H3790   1.083       .  S
C3782      C3785   1.374       .  A
S3783      C3784   1.724       .  A
C3784      C3785   1.389       .  A
C3785      H3791   1.083       .  S
S3786      C3787   1.721       .  A
C3787      C3788   1.385       .  A
C3788      H3792   1.083       .  S
C3793      C3798   1.386       .  A
C3793      C3794   1.400       .  A
C3793      S3799   1.706       .  A
C3794      C3795   1.401       .  A
C3794      H3805   1.083       .  S
C3795      C3804   1.365       .  A
C3795      C3796   1.386       .  A
C3796      C3797   1.403       .  A
C3796      S3802   1.715       .  A
C3797      C3798   1.405       .  A
C3797      H3806   1.083       .  S
C3798      C3801   1.371       .  A
S3799      C3800   1.728       .  A
C3800      C3801   1.388       .  A
C3801      H3807   1.083       .  S
S3802      C3803   1.722       .  A
C3803      C3804   1.386       .  A
C3804      H3808   1.083       .  S
C3809      C3814   1.388       .  A
C3809      C3810   1.401       .  A
C3809      S3815   1.709       .  A
C3810      C3811   1.402       .  A
C3810      H3821   1.083       .  S
C3811      C3820   1.368       .  A
C3811      C3812   1.386       .  A
C3812      C3813   1.403       .  A
C3812      S3818   1.710       .  A
C3813      C3814   1.404       .  A
C3813      H3822   1.083       .  S
C3814      C3817   1.371       .  A
S3815      C3816   1.720       .  A
C3816      C3817   1.385       .  A
C3817      H3823   1.083       .  S
S3818      C3819   1.725       .  A
C3819      C3820   1.387       .  A
C3820      H3824   1.083       .  S
C3825      C3830   1.387       .  A
C3825      C3826   1.399       .  A
C3825      S3831   1.706       .  A
C3826      C3827   1.400       .  A
C3826      H3837   1.083       .  S
C3827      C3836   1.368       .  A
C3827      C3828   1.387       .  A
C3828      C3829   1.407       .  A
C3828      S3834   1.714       .  A
C3829      C3830   1.408       .  A
C3829      H3838   1.083       .  S
C3830      C3833   1.376       .  A
S3831      C3832   1.723       .  A
C3832      C3833   1.391       .  A
C3833      H3839   1.083       .  S
S3834      C3835   1.724       .  A
C3835      C3836   1.382       .  A
C3836      H3840   1.083       .  S
C3841      C3846   1.386       .  A
C3841      C3842   1.403       .  A
C3841      S3847   1.710       .  A
C3842      C3843   1.404       .  A
C3842      H3853   1.083       .  S
C3843      C3852   1.372       .  A
C3843      C3844   1.387       .  A
C3844      C3845   1.405       .  A
C3844      S3850   1.713       .  A
C3845      C3846   1.406       .  A
C3845      H3854   1.083       .  S
C3846      C3849   1.374       .  A
S3847      C3848   1.725       .  A
C3848      C3849   1.390       .  A
C3849      H3855   1.083       .  S
S3850      C3851   1.724       .  A
C3851      C3852   1.385       .  A
C3852      H3856   1.083       .  S
C3857      C3862   1.387       .  A
C3857      C3858   1.404       .  A
C3857      S3863   1.709       .  A
C3858      C3859   1.405       .  A
C3858      H3869   1.083       .  S
C3859      C3868   1.374       .  A
C3859      C3860   1.387       .  A
C3860      C3861   1.403       .  A
C3860      S3866   1.709       .  A
C3861      C3862   1.403       .  A
C3861      H3870   1.083       .  S
C3862      C3865   1.373       .  A
S3863      C3864   1.725   1_545  A
C3864      C3865   1.388   1_565  A
C3865      H3871   1.083       .  S
S3866      C3867   1.721       .  A
C3867      C3868   1.387       .  A
C3868      H3872   1.083       .  S
C3873      C3878   1.387       .  A
C3873      C3874   1.403       .  A
C3873      S3879   1.707       .  A
C3874      C3875   1.403       .  A
C3874      H3885   1.083       .  S
C3875      C3884   1.372       .  A
C3875      C3876   1.388       .  A
C3876      C3877   1.401       .  A
C3876      S3882   1.705       .  A
C3877      C3878   1.401       .  A
C3877      H3886   1.083       .  S
C3878      C3881   1.371       .  A
S3879      C3880   1.726       .  A
C3880      C3881   1.386       .  A
C3881      H3887   1.083       .  S
S3882      C3883   1.720       .  A
C3883      C3884   1.386       .  A
C3884      H3888   1.083       .  S
C3889      C3894   1.388       .  A
C3889      C3890   1.402       .  A
C3889      S3895   1.710       .  A
C3890      C3891   1.404       .  A
C3890      H3901   1.083       .  S
C3891      C3900   1.369       .  A
C3891      C3892   1.386       .  A
C3892      C3893   1.402       .  A
C3892      S3898   1.710       .  A
C3893      C3894   1.403       .  A
C3893      H3902   1.083       .  S
C3894      C3897   1.370       .  A
S3895      C3896   1.721       .  A
C3896      C3897   1.384       .  A
C3897      H3903   1.083       .  S
S3898      C3899   1.723       .  A
C3899      C3900   1.389       .  A
C3900      H3904   1.083       .  S
C3905      C3910   1.387       .  A
C3905      C3906   1.399       .  A
C3905      S3911   1.702       .  A
C3906      C3907   1.399       .  A
C3906      H3917   1.083       .  S
C3907      C3916   1.367       .  A
C3907      C3908   1.388       .  A
C3908      C3909   1.400       .  A
C3908      S3914   1.706       .  A
C3909      C3910   1.401       .  A
C3909      H3918   1.083       .  S
C3910      C3913   1.370       .  A
S3911      C3912   1.723       .  A
C3912      C3913   1.386       .  A
C3913      H3919   1.083       .  S
S3914      C3915   1.719       .  A
C3915      C3916   1.382       .  A
C3916      H3920   1.083       .  S
C3921      C3926   1.387       .  A
C3921      C3922   1.402       .  A
C3921      S3927   1.708       .  A
C3922      C3923   1.402       .  A
C3922      H3933   1.083       .  S
C3923      C3932   1.371       .  A
C3923      C3924   1.388       .  A
C3924      C3925   1.402       .  A
C3924      S3930   1.708       .  A
C3925      C3926   1.403       .  A
C3925      H3934   1.083       .  S
C3926      C3929   1.371       .  A
S3927      C3928   1.723       .  A
C3928      C3929   1.388       .  A
C3929      H3935   1.083       .  S
S3930      C3931   1.721       .  A
C3931      C3932   1.384       .  A
C3932      H3936   1.083       .  S
C3937      C3942   1.388       .  A
C3937      C3938   1.402       .  A
C3937      S3943   1.709       .  A
C3938      C3939   1.403       .  A
C3938      H3949   1.083       .  S
C3939      C3948   1.372       .  A
C3939      C3940   1.386       .  A
C3940      C3941   1.403       .  A
C3940      S3946   1.709       .  A
C3941      C3942   1.403       .  A
C3941      H3950   1.083       .  S
C3942      C3945   1.372       .  A
S3943      C3944   1.720       .  A
C3944      C3945   1.385       .  A
C3945      H3951   1.083       .  S
S3946      C3947   1.725       .  A
C3947      C3948   1.389       .  A
C3948      H3952   1.083       .  S
C3953      C3958   1.388       .  A
C3953      C3954   1.399       .  A
C3953      S3959   1.705       .  A
C3954      C3955   1.401       .  A
C3954      H3965   1.083       .  S
C3955      C3964   1.369       .  A
C3955      C3956   1.387       .  A
C3956      C3957   1.403       .  A
C3956      S3962   1.709       .  A
C3957      C3958   1.404       .  A
C3957      H3966   1.083       .  S
C3958      C3961   1.371       .  A
S3959      C3960   1.720       .  A
C3960      C3961   1.386       .  A
C3961      H3967   1.083       .  S
S3962      C3963   1.725       .  A
C3963      C3964   1.387       .  A
C3964      H3968   1.083       .  S
C3969      C3974   1.387       .  A
C3969      C3970   1.402       .  A
C3969      S3975   1.710       .  A
C3970      C3971   1.403       .  A
C3970      H3981   1.083       .  S
C3971      C3980   1.371       .  A
C3971      C3972   1.386       .  A
C3972      C3973   1.405       .  A
C3972      S3978   1.712       .  A
C3973      C3974   1.406       .  A
C3973      H3982   1.083       .  S
C3974      C3977   1.374       .  A
S3975      C3976   1.721       .  A
C3976      C3977   1.387       .  A
C3977      H3983   1.083       .  S
S3978      C3979   1.726       .  A
C3979      C3980   1.388       .  A
C3980      H3984   1.083       .  S
C3985      C3990   1.387       .  A
C3985      C3986   1.404       .  A
C3985      S3991   1.713       .  A
C3986      C3987   1.405       .  A
C3986      H3997   1.083       .  S
C3987      C3996   1.374       .  A
C3987      C3988   1.387       .  A
C3988      C3989   1.400       .  A
C3988      S3994   1.704       .  A
C3989      C3990   1.402       .  A
C3989      H3998   1.083       .  S
C3990      C3993   1.369       .  A
S3991      C3992   1.721       .  A
C3992      C3993   1.387       .  A
C3993      H3999   1.083       .  S
S3994      C3995   1.724       .  A
C3995      C3996   1.388       .  A
C3996      H4000   1.083       .  S
C4001      C4006   1.387       .  A
C4001      C4002   1.403       .  A
C4001      S4007   1.709       .  A
C4002      C4003   1.404       .  A
C4002      H4013   1.083       .  S
C4003      C4012   1.374       .  A
C4003      C4004   1.388       .  A
C4004      C4005   1.400       .  A
C4004      S4010   1.702       .  A
C4005      C4006   1.400       .  A
C4005      H4014   1.083       .  S
C4006      C4009   1.368       .  A
S4007      C4008   1.723       .  A
C4008      C4009   1.384       .  A
C4009      H4015   1.083       .  S
S4010      C4011   1.723       .  A
C4011      C4012   1.385       .  A
C4012      H4016   1.083       .  S
C4017      C4022   1.387       .  A
C4017      C4018   1.396       .  A
C4017      S4023   1.705       .  A
C4018      C4019   1.399       .  A
C4018      H4029   1.083       .  S
C4019      C4028   1.363       .  A
C4019      C4020   1.386       .  A
C4020      C4021   1.407       .  A
C4020      S4026   1.720       .  A
C4021      C4022   1.409       .  A
C4021      H4030   1.083       .  S
C4022      C4025   1.373       .  A
S4023      C4024   1.719       .  A
C4024      C4025   1.390       .  A
C4025      H4031   1.083       .  S
S4026      C4027   1.725       .  A
C4027      C4028   1.384       .  A
C4028      H4032   1.084       .  S
C4033      C4038   1.387       .  A
C4033      C4034   1.402       .  A
C4033      S4039   1.706       .  A
C4034      C4035   1.402       .  A
C4034      H4045   1.083       .  S
C4035      C4044   1.370       .  A
C4035      C4036   1.388       .  A
C4036      C4037   1.400       .  A
C4036      S4042   1.706       .  A
C4037      C4038   1.401       .  A
C4037      H4046   1.083       .  S
C4038      C4041   1.369       .  A
S4039      C4040   1.725       .  A
C4040      C4041   1.386       .  A
C4041      H4047   1.083       .  S
S4042      C4043   1.719       .  A
C4043      C4044   1.384       .  A
C4044      H4048   1.083       .  S
C4049      C4054   1.387       .  A
C4049      C4050   1.407       .  A
C4049      S4055   1.712       .  A
C4050      C4051   1.407       .  A
C4050      H4061   1.083       .  S
C4051      C4060   1.379       .  A
C4051      C4052   1.388       .  A
C4052      C4053   1.398       .  A
C4052      S4058   1.699       .  A
C4053      C4054   1.398       .  A
C4053      H4062   1.083       .  S
C4054      C4057   1.368       .  A
S4055      C4056   1.726       .  A
C4056      C4057   1.385       .  A
C4057      H4063   1.083       .  S
S4058      C4059   1.722       .  A
C4059      C4060   1.388       .  A
C4060      H4064   1.083       .  S
C4065      C4070   1.388       .  A
C4065      C4066   1.399       .  A
C4065      S4071   1.705       .  A
C4066      C4067   1.400       .  A
C4066      H4077   1.083       .  S
C4067      C4076   1.366       .  A
C4067      C4068   1.387       .  A
C4068      C4069   1.400       .  A
C4068      S4074   1.706       .  A
C4069      C4070   1.401       .  A
C4069      H4078   1.083       .  S
C4070      C4073   1.367       .  A
S4071      C4072   1.718       .  A
C4072      C4073   1.382       .  A
C4073      H4079   1.083       .  S
S4074      C4075   1.722       .  A
C4075      C4076   1.386       .  A
C4076      H4080   1.083       .  S
C4081      C4086   1.388       .  A
C4081      C4082   1.401       .  A
C4081      S4087   1.700       .  A
C4082      C4083   1.400       .  A
C4082      H4093   1.083       .  S
C4083      C4092   1.371       .  A
C4083      C4084   1.387       .  A
C4084      C4085   1.404       .  A
C4084      S4090   1.708       .  A
C4085      C4086   1.404       .  A
C4085      H4094   1.083       .  S
C4086      C4089   1.377       .  A
S4087      C4088   1.723       .  A
C4088      C4089   1.385       .  A
C4089      H4095   1.083       .  S
S4090      C4091   1.725       .  A
C4091      C4092   1.387       .  A
C4092      H4096   1.083       .  S
C4097      C4102   1.386       .  A
C4097      C4098   1.406       .  A
C4097      S4103   1.716       .  A
C4098      C4099   1.407       .  A
C4098      H4109   1.083       .  S
C4099      C4108   1.372       .  A
C4099      C4100   1.388       .  A
C4100      C4101   1.395       .  A
C4100      S4106   1.703       .  A
C4101      C4102   1.398       .  A
C4101      H4110   1.083       .  S
C4102      C4105   1.363       .  A
S4103      C4104   1.725       .  A
C4104      C4105   1.384       .  A
C4105      H4111   1.084       .  S
S4106      C4107   1.719       .  A
C4107      C4108   1.388       .  A
C4108      H4112   1.083       .  S
C4113      C4118   1.386       .  A
C4113      C4114   1.405       .  A
C4113      S4119   1.716       .  A
C4114      C4115   1.406       .  A
C4114      H4125   1.083       .  S
C4115      C4124   1.374       .  A
C4115      C4116   1.387       .  A
C4116      C4117   1.399       .  A
C4116      S4122   1.704       .  A
C4117      C4118   1.401       .  A
C4117      H4126   1.083       .  S
C4118      C4121   1.367       .  A
S4119      C4120   1.723       .  A
C4120      C4121   1.386       .  A
C4121      H4127   1.083       .  S
S4122      C4123   1.726       .  A
C4123      C4124   1.388       .  A
C4124      H4128   1.083       .  S
C4129      C4134   1.387       .  A
C4129      C4130   1.402       .  A
C4129      S4135   1.706       .  A
C4130      C4131   1.402       .  A
C4130      H4141   1.083       .  S
C4131      C4140   1.371       .  A
C4131      C4132   1.387       .  A
C4132      C4133   1.402       .  A
C4132      S4138   1.707       .  A
C4133      C4134   1.403       .  A
C4133      H4142   1.083       .  S
C4134      C4137   1.372       .  A
S4135      C4136   1.725       .  A
C4136      C4137   1.388       .  A
C4137      H4143   1.083       .  S
S4138      C4139   1.722       .  A
C4139      C4140   1.385       .  A
C4140      H4144   1.083       .  S
C4145      C4150   1.386       .  A
C4145      C4146   1.402       .  A
C4145      S4151   1.712       .  A
C4146      C4147   1.404       .  A
C4146      H4157   1.083       .  S
C4147      C4156   1.368       .  A
C4147      C4148   1.387       .  A
C4148      C4149   1.400       .  A
C4148      S4154   1.709       .  A
C4149      C4150   1.402       .  A
C4149      H4158   1.083       .  S
C4150      C4153   1.367       .  A
S4151      C4152   1.725       .  A
C4152      C4153   1.388       .  A
C4153      H4159   1.083       .  S
S4154      C4155   1.721       .  A
C4155      C4156   1.384       .  A
C4156      H4160   1.083       .  S
C4161      C4166   1.387       .  A
C4161      C4162   1.399       .  A
C4161      S4167   1.706       .  A
C4162      C4163   1.400       .  A
C4162      H4173   1.083       .  S
C4163      C4172   1.366       .  A
C4163      C4164   1.388       .  A
C4164      C4165   1.402       .  A
C4164      S4170   1.711       .  A
C4165      C4166   1.404       .  A
C4165      H4174   1.083       .  S
C4166      C4169   1.371       .  A
S4167      C4168   1.724       .  A
C4168      C4169   1.389       .  A
C4169      H4175   1.083       .  S
S4170      C4171   1.721       .  A
C4171      C4172   1.382       .  A
C4172      H4176   1.083       .  S
C4177      C4182   1.388       .  A
C4177      C4178   1.398       .  A
C4177      S4183   1.700       .  A
C4178      C4179   1.398       .  A
C4178      H4189   1.083       .  S
C4179      C4188   1.368       .  A
C4179      C4180   1.387       .  A
C4180      C4181   1.405       .  A
C4180      S4186   1.710       .  A
C4181      C4182   1.405       .  A
C4181      H4190   1.083       .  S
C4182      C4185   1.375       .  A
S4183      C4184   1.721       .  A
C4184      C4185   1.386       .  A
C4185      H4191   1.083       .  S
S4186      C4187   1.724       .  A
C4187      C4188   1.384       .  A
C4188      H4192   1.083       .  S
C4193      C4198   1.387       .  A
C4193      C4194   1.400       .  A
C4193      S4199   1.707       .  A
C4194      C4195   1.401       .  A
C4194      H4205   1.083       .  S
C4195      C4204   1.367       .  A
C4195      C4196   1.386       .  A
C4196      C4197   1.406       .  A
C4196      S4202   1.716       .  A
C4197      C4198   1.408       .  A
C4197      H4206   1.083       .  S
C4198      C4201   1.375       .  A
S4199      C4200   1.724       .  A
C4200      C4201   1.391       .  A
C4201      H4207   1.083       .  S
S4202      C4203   1.723       .  A
C4203      C4204   1.385       .  A
C4204      H4208   1.084       .  S
C4209      C4214   1.387       .  A
C4209      C4210   1.404       .  A
C4209      S4215   1.715       .  A
C4210      C4211   1.406       .  A
C4210      H4221   1.083       .  S
C4211      C4220   1.371       .  A
C4211      C4212   1.387       .  A
C4212      C4213   1.397       .  A
C4212      S4218   1.705       .  A
C4213      C4214   1.399       .  A
C4213      H4222   1.083       .  S
C4214      C4217   1.364       .  A
S4215      C4216   1.722       .  A
C4216      C4217   1.384       .  A
C4217      H4223   1.084       .  S
S4218      C4219   1.721       .  A
C4219      C4220   1.389       .  A
C4220      H4224   1.083       .  S
C4225      C4230   1.386       .  A
C4225      C4226   1.403       .  A
C4225      S4231   1.714       .  A
C4226      C4227   1.405       .  A
C4226      H4237   1.083       .  S
C4227      C4236   1.370       .  A
C4227      C4228   1.388       .  A
C4228      C4229   1.399       .  A
C4228      S4234   1.708       .  A
C4229      C4230   1.401       .  A
C4229      H4238   1.083       .  S
C4230      C4233   1.365       .  A
S4231      C4232   1.723       .  A
C4232      C4233   1.387       .  A
C4233      H4239   1.083       .  S
S4234      C4235   1.719       .  A
C4235      C4236   1.385       .  A
C4236      H4240   1.083       .  S
C4241      C4246   1.387       .  A
C4241      C4242   1.399       .  A
C4241      S4247   1.705       .  A
C4242      C4243   1.400       .  A
C4242      H4253   1.083       .  S
C4243      C4252   1.366       .  A
C4243      C4244   1.387       .  A
C4244      C4245   1.402       .  A
C4244      S4250   1.710       .  A
C4245      C4246   1.404       .  A
C4245      H4254   1.083       .  S
C4246      C4249   1.371       .  A
S4247      C4248   1.724       .  A
C4248      C4249   1.389       .  A
C4249      H4255   1.083       .  S
S4250      C4251   1.721       .  A
C4251      C4252   1.382       .  A
C4252      H4256   1.083       .  S
C4257      C4262   1.387       .  A
C4257      C4258   1.398       .  A
C4257      S4263   1.704       .  A
C4258      C4259   1.400       .  A
C4258      H4269   1.083       .  S
C4259      C4268   1.366       .  A
C4259      C4260   1.387       .  A
C4260      C4261   1.405       .  A
C4260      S4266   1.715       .  A
C4261      C4262   1.407       .  A
C4261      H4270   1.083       .  S
C4262      C4265   1.374       .  A
S4263      C4264   1.722       .  A
C4264      C4265   1.389       .  A
C4265      H4271   1.083       .  S
S4266      C4267   1.723       .  A
C4267      C4268   1.384       .  A
C4268      H4272   1.084       .  S
C4273      C4278   1.387       .  A
C4273      C4274   1.405       .  A
C4273      S4279   1.716       .  A
C4274      C4275   1.407       .  A
C4274      H4285   1.083       .  S
C4275      C4284   1.372       .  A
C4275      C4276   1.387       .  A
C4276      C4277   1.397       .  A
C4276      S4282   1.704       .  A
C4277      C4278   1.400       .  A
C4277      H4286   1.083       .  S
C4278      C4281   1.365       .  A
S4279      C4280   1.723       .  A
C4280      C4281   1.385       .  A
C4281      H4287   1.084       .  S
S4282      C4283   1.722       .  A
C4283      C4284   1.390       .  A
C4284      H4288   1.083       .  S
C4289      C4294   1.386       .  A
C4289      C4290   1.407       .  A
C4289      S4295   1.717       .  A
C4290      C4291   1.408       .  A
C4290      H4301   1.083       .  S
C4291      C4300   1.375       .  A
C4291      C4292   1.387       .  A
C4292      C4293   1.397       .  A
C4292      S4298   1.703       .  A
C4293      C4294   1.399       .  A
C4293      H4302   1.083       .  S
C4294      C4297   1.364       .  A
S4295      C4296   1.724       .  A
C4296      C4297   1.385       .  A
C4297      H4303   1.084       .  S
S4298      C4299   1.724       .  A
C4299      C4300   1.391       .  A
C4300      H4304   1.083       .  S
C4305      C4310   1.387       .  A
C4305      C4306   1.401       .  A
C4305      S4311   1.704       .  A
C4306      C4307   1.401       .  A
C4306      H4317   1.083       .  S
C4307      C4316   1.370       .  A
C4307      C4308   1.388       .  A
C4308      C4309   1.402       .  A
C4308      S4314   1.707       .  A
C4309      C4310   1.403       .  A
C4309      H4318   1.083       .  S
C4310      C4313   1.373       .  A
S4311      C4312   1.724       .  A
C4312      C4313   1.388       .  A
C4313      H4319   1.083       .  S
S4314      C4315   1.721       .  A
C4315      C4316   1.384       .  A
C4316      H4320   1.083       .  S
C4321      C4326   1.387       .  A
C4321      C4322   1.402       .  A
C4321      S4327   1.709       .  A
C4322      C4323   1.402       .  A
C4322      H4333   1.083       .  S
C4323      C4332   1.369       .  A
C4323      C4324   1.387       .  A
C4324      C4325   1.402       .  A
C4324      S4330   1.709       .  A
C4325      C4326   1.404       .  A
C4325      H4334   1.083       .  S
C4326      C4329   1.371       .  A
S4327      C4328   1.725       .  A
C4328      C4329   1.388       .  A
C4329      H4335   1.083       .  S
S4330      C4331   1.722       .  A
C4331      C4332   1.384       .  A
C4332      H4336   1.083       .  S
C4337      C4342   1.386       .  A
C4337      C4338   1.404       .  A
C4337      S4343   1.712       .  A
C4338      C4339   1.405       .  A
C4338      H4349   1.083       .  S
C4339      C4348   1.371       .  A
C4339      C4340   1.388       .  A
C4340      C4341   1.398       .  A
C4340      S4346   1.706       .  A
C4341      C4342   1.400       .  A
C4341      H4350   1.083       .  S
C4342      C4345   1.366       .  A
S4343      C4344   1.726       .  A
C4344      C4345   1.386       .  A
C4345      H4351   1.083       .  S
S4346      C4347   1.718       .  A
C4347      C4348   1.386       .  A
C4348      H4352   1.083       .  S
C4353      C4358   1.388       .  A
C4353      C4354   1.398       .  A
C4353      S4359   1.704       .  A
C4354      C4355   1.400       .  A
C4354      H4365   1.083       .  S
C4355      C4364   1.368       .  A
C4355      C4356   1.387       .  A
C4356      C4357   1.400       .  A
C4356      S4362   1.703       .  A
C4357      C4358   1.400       .  A
C4357      H4366   1.083       .  S
C4358      C4361   1.366       .  A
S4359      C4360   1.717       .  A
C4360      C4361   1.382       .  A
C4361      H4367   1.083       .  S
S4362      C4363   1.724       .  A
C4363      C4364   1.385       .  A
C4364      H4368   1.083       .  S
C4369      C4374   1.386       .  A
C4369      C4370   1.406       .  A
C4369      S4375   1.718       .  A
C4370      C4371   1.408       .  A
C4370      H4381   1.083       .  S
C4371      C4380   1.374       .  A
C4371      C4372   1.386       .  A
C4372      C4373   1.399       .  A
C4372      S4378   1.706       .  A
C4373      C4374   1.401       .  A
C4373      H4382   1.083       .  S
C4374      C4377   1.366       .  A
S4375      C4376   1.724       .  A
C4376      C4377   1.387       .  A
C4377      H4383   1.084       .  S
S4378      C4379   1.726       .  A
C4379      C4380   1.391       .  A
C4380      H4384   1.083       .  S
C4385      C4390   1.388       .  A
C4385      C4386   1.404       .  A
C4385      S4391   1.708       .  A
C4386      C4387   1.404       .  A
C4386      H4397   1.083       .  S
C4387      C4396   1.373       .  A
C4387      C4388   1.387       .  A
C4388      C4389   1.398       .  A
C4388      S4394   1.700       .  A
C4389      C4390   1.397       .  A
C4389      H4398   1.083       .  S
C4390      C4393   1.366       .  A
S4391      C4392   1.721       .  A
C4392      C4393   1.380       .  A
C4393      H4399   1.083       .  S
S4394      C4395   1.723       .  A
C4395      C4396   1.388       .  A
C4396      H4400   1.083       .  S
C4401      C4406   1.387       .  A
C4401      C4402   1.399       .  A
C4401      S4407   1.699       .  A
C4402      C4403   1.399       .  A
C4402      H4413   1.083       .  S
C4403      C4412   1.369       .  A
C4403      C4404   1.386       .  A
C4404      C4405   1.406       .  A
C4404      S4410   1.711       .  A
C4405      C4406   1.406       .  A
C4405      H4414   1.083       .  S
C4406      C4409   1.378       .  A
S4407      C4408   1.725       .  A
C4408      C4409   1.387       .  A
C4409      H4415   1.083       .  S
S4410      C4411   1.727       .  A
C4411      C4412   1.387       .  A
C4412      H4416   1.083       .  S
C4417      C4422   1.386       .  A
C4417      C4418   1.406       .  A
C4417      S4423   1.717       .  A
C4418      C4419   1.407       .  A
C4418      H4429   1.083       .  S
C4419      C4428   1.375       .  A
C4419      C4420   1.387       .  A
C4420      C4421   1.400       .  A
C4420      S4426   1.707       .  A
C4421      C4422   1.402       .  A
C4421      H4430   1.083       .  S
C4422      C4425   1.366       .  A
S4423      C4424   1.724       .  A
C4424      C4425   1.386       .  A
C4425      H4431   1.083       .  S
S4426      C4427   1.727       .  A
C4427      C4428   1.389       .  A
C4428      H4432   1.083       .  S
C4433      C4438   1.388       .  A
C4433      C4434   1.398       .  A
C4433      S4439   1.705       .  A
C4434      C4435   1.400       .  A
C4434      H4445   1.083       .  S
C4435      C4444   1.367       .  A
C4435      C4436   1.387       .  A
C4436      C4437   1.402       .  A
C4436      S4442   1.708       .  A
C4437      C4438   1.403       .  A
C4437      H4446   1.083       .  S
C4438      C4441   1.369       .  A
S4439      C4440   1.717       .  A
C4440      C4441   1.384       .  A
C4441      H4447   1.083       .  S
S4442      C4443   1.724       .  A
C4443      C4444   1.386       .  A
C4444      H4448   1.083       .  S
C4449      C4454   1.388       .  A
C4449      C4450   1.399       .  A
C4449      S4455   1.707       .  A
C4450      C4451   1.401       .  A
C4450      H4461   1.083       .  S
C4451      C4460   1.366       .  A
C4451      C4452   1.387       .  A
C4452      C4453   1.400       .  A
C4452      S4458   1.707       .  A
C4453      C4454   1.401       .  A
C4453      H4462   1.083       .  S
C4454      C4457   1.367       .  A
S4455      C4456   1.720       .  A
C4456      C4457   1.382       .  A
C4457      H4463   1.083       .  S
S4458      C4459   1.722       .  A
C4459      C4460   1.386       .  A
C4460      H4464   1.083       .  S
C4465      C4470   1.387       .  A
C4465      C4466   1.401       .  A
C4465      S4471   1.711       .  A
C4466      C4467   1.402       .  A
C4466      H4477   1.083       .  S
C4467      C4476   1.368       .  A
C4467      C4468   1.387       .  A
C4468      C4469   1.398       .  A
C4468      S4474   1.703       .  A
C4469      C4470   1.400       .  A
C4469      H4478   1.083       .  S
C4470      C4473   1.364       .  A
S4471      C4472   1.720       .  A
C4472      C4473   1.384       .  A
C4473      H4479   1.084       .  S
S4474      C4475   1.723       .  A
C4475      C4476   1.385       .  A
C4476      H4480   1.083       .  S
C4481      C4486   1.386       .  A
C4481      C4482   1.406       .  A
C4481      S4487   1.717       .  A
C4482      C4483   1.408       .  A
C4482      H4493   1.083       .  S
C4483      C4492   1.374       .  A
C4483      C4484   1.387       .  A
C4484      C4485   1.397       .  A
C4484      S4490   1.704       .  A
C4485      C4486   1.399       .  A
C4485      H4494   1.083       .  S
C4486      C4489   1.364       .  A
S4487      C4488   1.724       .  A
C4488      C4489   1.385       .  A
C4489      H4495   1.084       .  S
S4490      C4491   1.720       .  A
C4491      C4492   1.390       .  A
C4492      H4496   1.083       .  S
C4497      C4502   1.387       .  A
C4497      C4498   1.398       .  A
C4497      S4503   1.704       .  A
C4498      C4499   1.399       .  A
C4498      H4509   1.083       .  S
C4499      C4508   1.366       .  A
C4499      C4500   1.388       .  A
C4500      C4501   1.403       .  A
C4500      S4506   1.710       .  A
C4501      C4502   1.405       .  A
C4501      H4510   1.083       .  S
C4502      C4505   1.371       .  A
S4503      C4504   1.720       .  A
C4504      C4505   1.390       .  A
C4505      H4511   1.083       .  S
S4506      C4507   1.721       .  A
C4507      C4508   1.381       .  A
C4508      H4512   1.083       .  S
C4513      C4518   1.387       .  A
C4513      C4514   1.400       .  A
C4513      S4519   1.707       .  A
C4514      C4515   1.400       .  A
C4514      H4525   1.083       .  S
C4515      C4524   1.368       .  A
C4515      C4516   1.387       .  A
C4516      C4517   1.403       .  A
C4516      S4522   1.710       .  A
C4517      C4518   1.405       .  A
C4517      H4526   1.083       .  S
C4518      C4521   1.371       .  A
S4519      C4520   1.721       .  A
C4520      C4521   1.390       .  A
C4521      H4527   1.083       .  S
S4522      C4523   1.722       .  A
C4523      C4524   1.383       .  A
C4524      H4528   1.083       .  S
C4529      C4534   1.386       .  A
C4529      C4530   1.408       .  A
C4529      S4535   1.719       .  A
C4530      C4531   1.410       .  A
C4530      H4541   1.083       .  S
C4531      C4540   1.376       .  A
C4531      C4532   1.387       .  A
C4532      C4533   1.397       .  A
C4532      S4538   1.704       .  A
C4533      C4534   1.399       .  A
C4533      H4542   1.083       .  S
C4534      C4537   1.366       .  A
S4535      C4536   1.725       .  A
C4536      C4537   1.386       .  A
C4537      H4543   1.084       .  S
S4538      C4539   1.721       .  A
C4539      C4540   1.392       .  A
C4540      H4544   1.083       .  S
C4545      C4550   1.388       .  A
C4545      C4546   1.398       .  A
C4545      S4551   1.704       .  A
C4546      C4547   1.400       .  A
C4546      H4557   1.083       .  S
C4547      C4556   1.366       .  A
C4547      C4548   1.386       .  A
C4548      C4549   1.406       .  A
C4548      S4554   1.716       .  A
C4549      C4550   1.407       .  A
C4549      H4558   1.083       .  S
C4550      C4553   1.375       .  A
S4551      C4552   1.720       .  A
C4552      C4553   1.389       .  A
C4553      H4559   1.083       .  S
S4554      C4555   1.723       .  A
C4555      C4556   1.385       .  A
C4556      H4560   1.084       .  S
C4561      C4566   1.386       .  A
C4561      C4562   1.410       .  A
C4561      S4567   1.718       .  A
C4562      C4563   1.411       .  A
C4562      H4573   1.083       .  S
C4563      C4572   1.379       .  A
C4563      C4564   1.387       .  A
C4564      C4565   1.396       .  A
C4564      S4570   1.700       .  A
C4565      C4566   1.398       .  A
C4565      H4574   1.083       .  S
C4566      C4569   1.366       .  A
S4567      C4568   1.727       .  A
C4568      C4569   1.384       .  A
C4569      H4575   1.083       .  S
S4570      C4571   1.723       .  A
C4571      C4572   1.394       .  A
C4572      H4576   1.083       .  S
C4577      C4582   1.387       .  A
C4577      C4578   1.400       .  A
C4577      S4583   1.702       .  A
C4578      C4579   1.400       .  A
C4578      H4589   1.083       .  S
C4579      C4588   1.368       .  A
C4579      C4580   1.388       .  A
C4580      C4581   1.398       .  A
C4580      S4586   1.703       .  A
C4581      C4582   1.399       .  A
C4581      H4590   1.083       .  S
C4582      C4585   1.367       .  A
S4583      C4584   1.723       .  A
C4584      C4585   1.384       .  A
C4585      H4591   1.083       .  S
S4586      C4587   1.718       .  A
C4587      C4588   1.383       .  A
C4588      H4592   1.083       .  S
C4593      C4598   1.388       .  A
C4593      C4594   1.394       .  A
C4593      S4599   1.699       .  A
C4594      C4595   1.395       .  A
C4594      H4605   1.083       .  S
C4595      C4604   1.362       .  A
C4595      C4596   1.387       .  A
C4596      C4597   1.406       .  A
C4596      S4602   1.714       .  A
C4597      C4598   1.407       .  A
C4597      H4606   1.083       .  S
C4598      C4601   1.372       .  A
S4599      C4600   1.718       .  A
C4600      C4601   1.388       .  A
C4601      H4607   1.083       .  S
S4602      C4603   1.724       .  A
C4603      C4604   1.380       .  A
C4604      H4608   1.084       .  S
C4609      C4614   1.386       .  A
C4609      C4610   1.406       .  A
C4609      S4615   1.718       .  A
C4610      C4611   1.408       .  A
C4610      H4621   1.083       .  S
C4611      C4620   1.375       .  A
C4611      C4612   1.386       .  A
C4612      C4613   1.397       .  A
C4612      S4618   1.702       .  A
C4613      C4614   1.399       .  A
C4613      H4622   1.083       .  S
C4614      C4617   1.363       .  A
S4615      C4616   1.723       .  A
C4616      C4617   1.385       .  A
C4617      H4623   1.084       .  S
S4618      C4619   1.726       .  A
C4619      C4620   1.392       .  A
C4620      H4624   1.083       .  S
C4625      C4630   1.387       .  A
C4625      C4626   1.399       .  A
C4625      S4631   1.708       .  A
C4626      C4627   1.401       .  A
C4626      H4637   1.083       .  S
C4627      C4636   1.366       .  A
C4627      C4628   1.388       .  A
C4628      C4629   1.397       .  A
C4628      S4634   1.705       .  A
C4629      C4630   1.400       .  A
C4629      H4638   1.083       .  S
C4630      C4633   1.363       .  A
S4631      C4632   1.721       .  A
C4632      C4633   1.385       .  A
C4633      H4639   1.084       .  S
S4634      C4635   1.719       .  A
C4635      C4636   1.383       .  A
C4636      H4640   1.083       .  S
C4641      C4646   1.387       .  A
C4641      C4642   1.403       .  A
C4641      S4647   1.708       .  A
C4642      C4643   1.404       .  A
C4642      H4653   1.083       .  S
C4643      C4652   1.373       .  A
C4643      C4644   1.388       .  A
C4644      C4645   1.400       .  A
C4644      S4650   1.706       .  A
C4645      C4646   1.401       .  A
C4645      H4654   1.083       .  S
C4646      C4649   1.369       .  A
S4647      C4648   1.725       .  A
C4648      C4649   1.385       .  A
C4649      H4655   1.083       .  S
S4650      C4651   1.720       .  A
C4651      C4652   1.386       .  A
C4652      H4656   1.083       .  S
C4657      C4662   1.386       .  A
C4657      C4658   1.406       .  A
C4657      S4663   1.716       .  A
C4658      C4659   1.407       .  A
C4658      H4669   1.083       .  S
C4659      C4668   1.374       .  A
C4659      C4660   1.387       .  A
C4660      C4661   1.398       .  A
C4660      S4666   1.705       .  A
C4661      C4662   1.400       .  A
C4661      H4670   1.083       .  S
C4662      C4665   1.365       .  A
S4663      C4664   1.724       .  A
C4664      C4665   1.386       .  A
C4665      H4671   1.084       .  S
S4666      C4667   1.723       .  A
C4667      C4668   1.388       .  A
C4668      H4672   1.083       .  S
C4673      C4678   1.387       .  A
C4673      C4674   1.401       .  A
C4673      S4679   1.709       .  A
C4674      C4675   1.403       .  A
C4674      H4685   1.083       .  S
C4675      C4684   1.370       .  A
C4675      C4676   1.387       .  A
C4676      C4677   1.403       .  A
C4676      S4682   1.710       .  A
C4677      C4678   1.404       .  A
C4677      H4686   1.083       .  S
C4678      C4681   1.372       .  A
S4679      C4680   1.721       .  A
C4680      C4681   1.386       .  A
C4681      H4687   1.083       .  S
S4682      C4683   1.726       .  A
C4683      C4684   1.387       .  A
C4684      H4688   1.083       .  S
C4689      C4694   1.388       .  A
C4689      C4690   1.399       .  A
C4689      S4695   1.707       .  A
C4690      C4691   1.401       .  A
C4690      H4701   1.083       .  S
C4691      C4700   1.366       .  A
C4691      C4692   1.387       .  A
C4692      C4693   1.398       .  A
C4692      S4698   1.703       .  A
C4693      C4694   1.399       .  A
C4693      H4702   1.083       .  S
C4694      C4697   1.364       .  A
S4695      C4696   1.719       .  A
C4696      C4697   1.380       .  A
C4697      H4703   1.083       .  S
S4698      C4699   1.722       .  A
C4699      C4700   1.385       .  A
C4700      H4704   1.083       .  S
C4705      C4710   1.387       .  A
C4705      C4706   1.403       .  A
C4705      S4711   1.709       .  A
C4706      C4707   1.404       .  A
C4706      H4717   1.083       .  S
C4707      C4716   1.370       .  A
C4707      C4708   1.388       .  A
C4708      C4709   1.398       .  A
C4708      S4714   1.704       .  A
C4709      C4710   1.399       .  A
C4709      H4718   1.083       .  S
C4710      C4713   1.366       .  A
S4711      C4712   1.726       .  A
C4712      C4713   1.385       .  A
C4713      H4719   1.083       .  S
S4714      C4715   1.719       .  A
C4715      C4716   1.385       .  A
C4716      H4720   1.083       .  S
C4721      C4726   1.387       .  A
C4721      C4722   1.400       .  A
C4721      S4727   1.706       .  A
C4722      C4723   1.401       .  A
C4722      H4733   1.083       .  S
C4723      C4732   1.370       .  A
C4723      C4724   1.386       .  A
C4724      C4725   1.409       .  A
C4724      S4730   1.718       .  A
C4725      C4726   1.409       .  A
C4725      H4734   1.083       .  S
C4726      C4729   1.378       .  A
S4727      C4728   1.722       .  A
C4728      C4729   1.392       .  A
C4729      H4735   1.083       .  S
S4730      C4731   1.725       .  A
C4731      C4732   1.386       .  A
C4732      H4736   1.083       .  S
C4737      C4742   1.388       .  A
C4737      C4738   1.400       .  A
C4737      S4743   1.707       .  A
C4738      C4739   1.401       .  A
C4738      H4749   1.083       .  S
C4739      C4748   1.368       .  A
C4739      C4740   1.387       .  A
C4740      C4741   1.402       .  A
C4740      S4746   1.709       .  A
C4741      C4742   1.403       .  A
C4741      H4750   1.083       .  S
C4742      C4745   1.371       .  A
S4743      C4744   1.720       .  A
C4744      C4745   1.385       .  A
C4745      H4751   1.083       .  S
S4746      C4747   1.723       .  A
C4747      C4748   1.386       .  A
C4748      H4752   1.083       .  S
C4753      C4758   1.387       .  A
C4753      C4754   1.397       .  A
C4753      S4759   1.702       .  A
C4754      C4755   1.399       .  A
C4754      H4765   1.083       .  S
C4755      C4764   1.365       .  A
C4755      C4756   1.387       .  A
C4756      C4757   1.404       .  A
C4756      S4762   1.712       .  A
C4757      C4758   1.405       .  A
C4757      H4766   1.083       .  S
C4758      C4761   1.371       .  A
S4759      C4760   1.722       .  A
C4760      C4761   1.389       .  A
C4761      H4767   1.083       .  S
S4762      C4763   1.722       .  A
C4763      C4764   1.385       .  A
C4764      H4768   1.084       .  S
C4769      C4774   1.387       .  A
C4769      C4770   1.404       .  A
C4769      S4775   1.709       .  A
C4770      C4771   1.404       .  A
C4770      H4781   1.083       .  S
C4771      C4780   1.374       .  A
C4771      C4772   1.387       .  A
C4772      C4773   1.400       .  A
C4772      S4778   1.702       .  A
C4773      C4774   1.400       .  A
C4773      H4782   1.083       .  S
C4774      C4777   1.370       .  A
S4775      C4776   1.722       .  A
C4776      C4777   1.384       .  A
C4777      H4783   1.083       .  S
S4778      C4779   1.723       .  A
C4779      C4780   1.389       .  A
C4780      H4784   1.083       .  S
C4785      C4790   1.388       .  A
C4785      C4786   1.401       .  A
C4785      S4791   1.708       .  A
C4786      C4787   1.402       .  A
C4786      H4797   1.083       .  S
C4787      C4796   1.369       .  A
C4787      C4788   1.387       .  A
C4788      C4789   1.402       .  A
C4788      S4794   1.708       .  A
C4789      C4790   1.403       .  A
C4789      H4798   1.083       .  S
C4790      C4793   1.371       .  A
S4791      C4792   1.721       .  A
C4792      C4793   1.385       .  A
C4793      H4799   1.083       .  S
S4794      C4795   1.724       .  A
C4795      C4796   1.386       .  A
C4796      H4800   1.083       .  S
C4801      C4806   1.387       .  A
C4801      C4802   1.399       .  A
C4801      S4807   1.705       .  A
C4802      C4803   1.401       .  A
C4802      H4813   1.083       .  S
C4803      C4812   1.366       .  A
C4803      C4804   1.386       .  A
C4804      C4805   1.405       .  A
C4804      S4810   1.715       .  A
C4805      C4806   1.406       .  A
C4805      H4814   1.083       .  S
C4806      C4809   1.374       .  A
S4807      C4808   1.723       .  A
C4808      C4809   1.389       .  A
C4809      H4815   1.083       .  S
S4810      C4811   1.723       .  A
C4811      C4812   1.386       .  A
C4812      H4816   1.084       .  S
C4817      C4822   1.387       .  A
C4817      C4818   1.405       .  A
C4817      S4823   1.716       .  A
C4818      C4819   1.407       .  A
C4818      H4829   1.083       .  S
C4819      C4828   1.372       .  A
C4819      C4820   1.388       .  A
C4820      C4821   1.397       .  A
C4820      S4826   1.706       .  A
C4821      C4822   1.399       .  A
C4821      H4830   1.083       .  S
C4822      C4825   1.363       .  A
S4823      C4824   1.723       .  A
C4824      C4825   1.383       .  A
C4825      H4831   1.084       .  S
S4826      C4827   1.719       .  A
C4827      C4828   1.389       .  A
C4828      H4832   1.083       .  S
C4833      C4838   1.387       .  A
C4833      C4834   1.400       .  A
C4833      S4839   1.702       .  A
C4834      C4835   1.400       .  A
C4834      H4845   1.083       .  S
C4835      C4844   1.371       .  A
C4835      C4836   1.388       .  A
C4836      C4837   1.402       .  A
C4836      S4842   1.705       .  A
C4837      C4838   1.402       .  A
C4837      H4846   1.083       .  S
C4838      C4841   1.372       .  A
S4839      C4840   1.724       .  A
C4840      C4841   1.388       .  A
C4841      H4847   1.083       .  S
S4842      C4843   1.720       .  A
C4843      C4844   1.383       .  A
C4844      H4848   1.083       .  S
C4849      C4854   1.387       .  A
C4849      C4850   1.403       .  A
C4849      S4855   1.707       .  A
C4850      C4851   1.403       .  A
C4850      H4861   1.083       .  S
C4851      C4860   1.371       .  A
C4851      C4852   1.388       .  A
C4852      C4853   1.401       .  A
C4852      S4858   1.707       .  A
C4853      C4854   1.402       .  A
C4853      H4862   1.083       .  S
C4854      C4857   1.372       .  A
S4855      C4856   1.726       .  A
C4856      C4857   1.388       .  A
C4857      H4863   1.083       .  S
S4858      C4859   1.719       .  A
C4859      C4860   1.385       .  A
C4860      H4864   1.083       .  S
C4865      C4870   1.387       .  A
C4865      C4866   1.398       .  A
C4865      S4871   1.705       .  A
C4866      C4867   1.400       .  A
C4866      H4877   1.083       .  S
C4867      C4876   1.364       .  A
C4867      C4868   1.386       .  A
C4868      C4869   1.406       .  A
C4868      S4874   1.716       .  A
C4869      C4870   1.407       .  A
C4869      H4878   1.083       .  S
C4870      C4873   1.373       .  A
S4871      C4872   1.721       .  A
C4872      C4873   1.389       .  A
C4873      H4879   1.083       .  S
S4874      C4875   1.724       .  A
C4875      C4876   1.385       .  A
C4876      H4880   1.084       .  S
C4881      C4886   1.387       .  A
C4881      C4882   1.401       .  A
C4881      S4887   1.704       .  A
C4882      C4883   1.401       .  A
C4882      H4893   1.083       .  S
C4883      C4892   1.370       .  A
C4883      C4884   1.388       .  A
C4884      C4885   1.403       .  A
C4884      S4890   1.709       .  A
C4885      C4886   1.404       .  A
C4885      H4894   1.083       .  S
C4886      C4889   1.373       .  A
S4887      C4888   1.724       .  A
C4888      C4889   1.388       .  A
C4889      H4895   1.083       .  S
S4890      C4891   1.722       .  A
C4891      C4892   1.384       .  A
C4892      H4896   1.083       .  S
C4897      C4902   1.387       .  A
C4897      C4898   1.402       .  A
C4897      S4903   1.708   1_455  A
C4898      C4899   1.402       .  A
C4898      H4909   1.083       .  S
C4899      C4908   1.370       .  A
C4899      C4900   1.388       .  A
C4900      C4901   1.402       .  A
C4900      S4906   1.708       .  A
C4901      C4902   1.403       .  A
C4901      H4910   1.083       .  S
C4902      C4905   1.371   1_455  A
S4903      C4904   1.725       .  A
C4904      C4905   1.388       .  A
C4905      H4911   1.083       .  S
S4906      C4907   1.720       .  A
C4907      C4908   1.385       .  A
C4908      H4912   1.083       .  S
C4913      C4918   1.387       .  A
C4913      C4914   1.402       .  A
C4913      S4919   1.706       .  A
C4914      C4915   1.402       .  A
C4914      H4925   1.083       .  S
C4915      C4924   1.371       .  A
C4915      C4916   1.387       .  A
C4916      C4917   1.403       .  A
C4916      S4922   1.708       .  A
C4917      C4918   1.403       .  A
C4917      H4926   1.083       .  S
C4918      C4921   1.373       .  A
S4919      C4920   1.725       .  A
C4920      C4921   1.387       .  A
C4921      H4927   1.083       .  S
S4922      C4923   1.722       .  A
C4923      C4924   1.385       .  A
C4924      H4928   1.083       .  S
C4929      C4934   1.387       .  A
C4929      C4930   1.401       .  A
C4929      S4935   1.708       .  A
C4930      C4931   1.403       .  A
C4930      H4941   1.083       .  S
C4931      C4940   1.370       .  A
C4931      C4932   1.387       .  A
C4932      C4933   1.402       .  A
C4932      S4938   1.709       .  A
C4933      C4934   1.403       .  A
C4933      H4942   1.083       .  S
C4934      C4937   1.370       .  A
S4935      C4936   1.722       .  A
C4936      C4937   1.386       .  A
C4937      H4943   1.083       .  S
S4938      C4939   1.721       .  A
C4939      C4940   1.386       .  A
C4940      H4944   1.083       .  S
C4945      C4950   1.387       .  A
C4945      C4946   1.400       .  A
C4945      S4951   1.705       .  A
C4946      C4947   1.401       .  A
C4946      H4957   1.083       .  S
C4947      C4956   1.369       .  A
C4947      C4948   1.388       .  A
C4948      C4949   1.403       .  A
C4948      S4954   1.710       .  A
C4949      C4950   1.404       .  A
C4949      H4958   1.083       .  S
C4950      C4953   1.372       .  A
S4951      C4952   1.723   1_554  A
C4952      C4953   1.388   1_556  A
C4953      H4959   1.083   1_554  S
S4954      C4955   1.722       .  A
C4955      C4956   1.383       .  A
C4956      H4960   1.083       .  S
C4961      C4966   1.387       .  A
C4961      C4962   1.399       .  A
C4961      S4967   1.704   1_455  A
C4962      C4963   1.400       .  A
C4962      H4973   1.083       .  S
C4963      C4972   1.366       .  A
C4963      C4964   1.388       .  A
C4964      C4965   1.401       .  A
C4964      S4970   1.709       .  A
C4965      C4966   1.403       .  A
C4965      H4974   1.083       .  S
C4966      C4969   1.370   1_455  A
S4967      C4968   1.723       .  A
C4968      C4969   1.387       .  A
C4969      H4975   1.083       .  S
S4970      C4971   1.720       .  A
C4971      C4972   1.382       .  A
C4972      H4976   1.083       .  S
C4977      C4982   1.387       .  A
C4977      C4978   1.400       .  A
C4977      S4983   1.703       .  A
C4978      C4979   1.400       .  A
C4978      H4989   1.083       .  S
C4979      C4988   1.369       .  A
C4979      C4980   1.388       .  A
C4980      C4981   1.401       .  A
C4980      S4986   1.706       .  A
C4981      C4982   1.402       .  A
C4981      H4990   1.083       .  S
C4982      C4985   1.371       .  A
S4983      C4984   1.724       .  A
C4984      C4985   1.386       .  A
C4985      H4991   1.083       .  S
S4986      C4987   1.720       .  A
C4987      C4988   1.383       .  A
C4988      H4992   1.083       .  S
C4993      C4998   1.386       .  A
C4993      C4994   1.403       .  A
C4993      S4999   1.709       .  A
C4994      C4995   1.403       .  A
C4994      H5005   1.083       .  S
C4995      C5004   1.372       .  A
C4995      C4996   1.387       .  A
C4996      C4997   1.404       .  A
C4996      S5002   1.712       .  A
C4997      C4998   1.405       .  A
C4997      H5006   1.083       .  S
C4998      C5001   1.374       .  A
S4999      C5000   1.724       .  A
C5000      C5001   1.390       .  A
C5001      H5007   1.083       .  S
S5002      C5003   1.723       .  A
C5003      C5004   1.386       .  A
C5004      H5008   1.083       .  S
C5009      C5014   1.388       .  A
C5009      C5010   1.404       .  A
C5009      S5015   1.709       .  A
C5010      C5011   1.403       .  A
C5010      H5021   1.083       .  S
C5011      C5020   1.374       .  A
C5011      C5012   1.387       .  A
C5012      C5013   1.401       .  A
C5012      S5018   1.702       .  A
C5013      C5014   1.401       .  A
C5013      H5022   1.083       .  S
C5014      C5017   1.370       .  A
S5015      C5016   1.721       .  A
C5016      C5017   1.384       .  A
C5017      H5023   1.083       .  S
S5018      C5019   1.725   1_554  A
C5019      C5020   1.387   1_556  A
C5020      H5024   1.083   1_554  S
C5025      C5030   1.387       .  A
C5025      C5026   1.402       .  A
C5025      S5031   1.708       .  A
C5026      C5027   1.403       .  A
C5026      H5037   1.083       .  S
C5027      C5036   1.371       .  A
C5027      C5028   1.387       .  A
C5028      C5029   1.404       .  A
C5028      S5034   1.711       .  A
C5029      C5030   1.405       .  A
C5029      H5038   1.083       .  S
C5030      C5033   1.373       .  A
S5031      C5032   1.724       .  A
C5032      C5033   1.389       .  A
C5033      H5039   1.083       .  S
S5034      C5035   1.722       .  A
C5035      C5036   1.384       .  A
C5036      H5040   1.083       .  S
C5041      C5046   1.387       .  A
C5041      C5042   1.402       .  A
C5041      S5047   1.706       .  A
C5042      C5043   1.402       .  A
C5042      H5053   1.083       .  S
C5043      C5052   1.372       .  A
C5043      C5044   1.387       .  A
C5044      C5045   1.406       .  A
C5044      S5050   1.712       .  A
C5045      C5046   1.407       .  A
C5045      H5054   1.083       .  S
C5046      C5049   1.377       .  A
S5047      C5048   1.725       .  A
C5048      C5049   1.391       .  A
C5049      H5055   1.083       .  S
S5050      C5051   1.723       .  A
C5051      C5052   1.384       .  A
C5052      H5056   1.083       .  S
C5057      C5062   1.387       .  A
C5057      C5058   1.403       .  A
C5057      S5063   1.708       .  A
C5058      C5059   1.404       .  A
C5058      H5069   1.083       .  S
C5059      C5068   1.372       .  A
C5059      C5060   1.387       .  A
C5060      C5061   1.403       .  A
C5060      S5066   1.710       .  A
C5061      C5062   1.403       .  A
C5061      H5070   1.083       .  S
C5062      C5065   1.373       .  A
S5063      C5064   1.726       .  A
C5064      C5065   1.388       .  A
C5065      H5071   1.083       .  S
S5066      C5067   1.721       .  A
C5067      C5068   1.386       .  A
C5068      H5072   1.083       .  S
C5073      C5078   1.387       .  A
C5073      C5074   1.402       .  A
C5073      S5079   1.709       .  A
C5074      C5075   1.403       .  A
C5074      H5085   1.083       .  S
C5075      C5084   1.370       .  A
C5075      C5076   1.386       .  A
C5076      C5077   1.403       .  A
C5076      S5082   1.709       .  A
C5077      C5078   1.404       .  A
C5077      H5086   1.083       .  S
C5078      C5081   1.372       .  A
S5079      C5080   1.720       .  A
C5080      C5081   1.386       .  A
C5081      H5087   1.083       .  S
S5082      C5083   1.724       .  A
C5083      C5084   1.388       .  A
C5084      H5088   1.083       .  S
C5089      C5094   1.387       .  A
C5089      C5090   1.403       .  A
C5089      S5095   1.712       .  A
C5090      C5091   1.405       .  A
C5090      H5101   1.083       .  S
C5091      C5100   1.370       .  A
C5091      C5092   1.387       .  A
C5092      C5093   1.397       .  A
C5092      S5098   1.703       .  A
C5093      C5094   1.399       .  A
C5093      H5102   1.083       .  S
C5094      C5097   1.365       .  A
S5095      C5096   1.723       .  A
C5096      C5097   1.384       .  A
C5097      H5103   1.083       .  S
S5098      C5099   1.721       .  A
C5099      C5100   1.388       .  A
C5100      H5104   1.083       .  S
C5105      C5110   1.387       .  A
C5105      C5106   1.402       .  A
C5105      S5111   1.709       .  A
C5106      C5107   1.403       .  A
C5106      H5117   1.083       .  S
C5107      C5116   1.371       .  A
C5107      C5108   1.387       .  A
C5108      C5109   1.403       .  A
C5108      S5114   1.711       .  A
C5109      C5110   1.404       .  A
C5109      H5118   1.083       .  S
C5110      C5113   1.371       .  A
S5111      C5112   1.723       .  A
C5112      C5113   1.387       .  A
C5113      H5119   1.083       .  S
S5114      C5115   1.722       .  A
C5115      C5116   1.385       .  A
C5116      H5120   1.083       .  S
C5121      C5126   1.387       .  A
C5121      C5122   1.400       .  A
C5121      S5127   1.704       .  A
C5122      C5123   1.401       .  A
C5122      H5133   1.083       .  S
C5123      C5132   1.369       .  A
C5123      C5124   1.387       .  A
C5124      C5125   1.402       .  A
C5124      S5130   1.709       .  A
C5125      C5126   1.403       .  A
C5125      H5134   1.083       .  S
C5126      C5129   1.371       .  A
S5127      C5128   1.723       .  A
C5128      C5129   1.388       .  A
C5129      H5135   1.083       .  S
S5130      C5131   1.724       .  A
C5131      C5132   1.386       .  A
C5132      H5136   1.083       .  S
C5137      C5142   1.387       .  A
C5137      C5138   1.400       .  A
C5137      S5143   1.710       .  A
C5138      C5139   1.402       .  A
C5138      H5149   1.083       .  S
C5139      C5148   1.365       .  A
C5139      C5140   1.388       .  A
C5140      C5141   1.396       .  A
C5140      S5146   1.704       .  A
C5141      C5142   1.399       .  A
C5141      H5150   1.083       .  S
C5142      C5145   1.361       .  A
S5143      C5144   1.720       .  A
C5144      C5145   1.383       .  A
C5145      H5151   1.084       .  S
S5146      C5147   1.720       .  A
C5147      C5148   1.383       .  A
C5148      H5152   1.083       .  S
C5153      C5158   1.387       .  A
C5153      C5154   1.403       .  A
C5153      S5159   1.712       .  A
C5154      C5155   1.405       .  A
C5154      H5165   1.083       .  S
C5155      C5164   1.371       .  A
C5155      C5156   1.387       .  A
C5156      C5157   1.398       .  A
C5156      S5162   1.705       .  A
C5157      C5158   1.400       .  A
C5157      H5166   1.083       .  S
C5158      C5161   1.365       .  A
S5159      C5160   1.721       .  A
C5160      C5161   1.383       .  A
C5161      H5167   1.084       .  S
S5162      C5163   1.722       .  A
C5163      C5164   1.387       .  A
C5164      H5168   1.083       .  S
C5169      C5174   1.388       .  A
C5169      C5170   1.401       .  A
C5169      S5175   1.710       .  A
C5170      C5171   1.403       .  A
C5170      H5181   1.083       .  S
C5171      C5180   1.369       .  A
C5171      C5172   1.387       .  A
C5172      C5173   1.400       .  A
C5172      S5178   1.706       .  A
C5173      C5174   1.402       .  A
C5173      H5182   1.083       .  S
C5174      C5177   1.369       .  A
S5175      C5176   1.721       .  A
C5176      C5177   1.383       .  A
C5177      H5183   1.083       .  S
S5178      C5179   1.723       .  A
C5179      C5180   1.387       .  A
C5180      H5184   1.083       .  S
C5185      C5190   1.387       .  A
C5185      C5186   1.402       .  A
C5185      S5191   1.704       .  A
C5186      C5187   1.401       .  A
C5186      H5197   1.083       .  S
C5187      C5196   1.371       .  A
C5187      C5188   1.387       .  A
C5188      C5189   1.406       .  A
C5188      S5194   1.712       .  A
C5189      C5190   1.406       .  A
C5189      H5198   1.083       .  S
C5190      C5193   1.378       .  A
S5191      C5192   1.724       .  A
C5192      C5193   1.388       .  A
C5193      H5199   1.083       .  S
S5194      C5195   1.724       .  A
C5195      C5196   1.386       .  A
C5196      H5200   1.083       .  S
C5201      C5206   1.388       .  A
C5201      C5202   1.396       .  A
C5201      S5207   1.705       .  A
C5202      C5203   1.398       .  A
C5202      H5213   1.083       .  S
C5203      C5212   1.363       .  A
C5203      C5204   1.387       .  A
C5204      C5205   1.400       .  A
C5204      S5210   1.705       .  A
C5205      C5206   1.401       .  A
C5205      H5214   1.083       .  S
C5206      C5209   1.365       .  A
S5207      C5208   1.717       .  A
C5208      C5209   1.383       .  A
C5209      H5215   1.083       .  S
S5210      C5211   1.724       .  A
C5211      C5212   1.383       .  A
C5212      H5216   1.083       .  S
C5217      C5222   1.387       .  A
C5217      C5218   1.400       .  A
C5217      S5223   1.704       .  A
C5218      C5219   1.401       .  A
C5218      H5229   1.083       .  S
C5219      C5228   1.368       .  A
C5219      C5220   1.388       .  A
C5220      C5221   1.397       .  A
C5220      S5226   1.702       .  A
C5221      C5222   1.399       .  A
C5221      H5230   1.083       .  S
C5222      C5225   1.365       .  A
S5223      C5224   1.722       .  A
C5224      C5225   1.384       .  A
C5225      H5231   1.083       .  S
S5226      C5227   1.717       .  A
C5227      C5228   1.383       .  A
C5228      H5232   1.083       .  S
C5233      C5238   1.387       .  A
C5233      C5234   1.399       .  A
C5233      S5239   1.708       .  A
C5234      C5235   1.402       .  A
C5234      H5245   1.083       .  S
C5235      C5244   1.367       .  A
C5235      C5236   1.386       .  A
C5236      C5237   1.406       .  A
C5236      S5242   1.718       .  A
C5237      C5238   1.408       .  A
C5237      H5246   1.083       .  S
C5238      C5241   1.374       .  A
S5239      C5240   1.724       .  A
C5240      C5241   1.391       .  A
C5241      H5247   1.083       .  S
S5242      C5243   1.723       .  A
C5243      C5244   1.387       .  A
C5244      H5248   1.084       .  S
C5249      C5254   1.386       .  A
C5249      C5250   1.408       .  A
C5249      S5255   1.719       .  A
C5250      C5251   1.410       .  A
C5250      H5261   1.083       .  S
C5251      C5260   1.377       .  A
C5251      C5252   1.387       .  A
C5252      C5253   1.398       .  A
C5252      S5258   1.705       .  A
C5253      C5254   1.400       .  A
C5253      H5262   1.083       .  S
C5254      C5257   1.366       .  A
S5255      C5256   1.725       .  A
C5256      C5257   1.386       .  A
C5257      H5263   1.084       .  S
S5258      C5259   1.722       .  A
C5259      C5260   1.392       .  A
C5260      H5264   1.083       .  S
